  
       XFOIL         Version 6.99
  
 Calculated polar for: 20140504-35_0.65+2                              
  
 1 1 Reynolds number fixed          Mach number fixed         
  
 xtrf =   1.000 (top)        1.000 (bottom)  
 Mach =   0.000     Re =     0.014 e 6     Ncrit =   9.000  9.000
  
   alpha    CL        CD       CDp       CM     Top_Xtr  Bot_Xtr  Top_Itr  Bot_Itr
  ------ -------- --------- --------- -------- -------- -------- -------- --------
  -1.000   0.0993   0.02588   0.00320  -0.0355   1.0000   1.0000   1.0000 250.0000
  -0.500   0.1503   0.02603   0.00311  -0.0352   1.0000   1.0000   1.0000 250.0000
   0.000   0.2002   0.02628   0.00324  -0.0347   1.0000   1.0000   1.0000 250.0000
   0.500   0.2490   0.02665   0.00360  -0.0343   1.0000   1.0000   1.0000 250.0000
   1.000   0.2966   0.02717   0.00422  -0.0341   1.0000   1.0000   1.0000 250.0000
   1.500   0.3424   0.02792   0.00515  -0.0341   1.0000   1.0000   1.0000 250.0000
   2.000   0.3846   0.02910   0.00659  -0.0347   1.0000   1.0000   1.0000 250.0000
   2.500   0.4198   0.03122   0.00893  -0.0368   1.0000   1.0000   1.0000 250.0000
   3.000   0.4453   0.03477   0.01255  -0.0408   1.0000   1.0000   1.0000 250.0000
   3.500   0.4667   0.03930   0.01715  -0.0461   1.0000   1.0000   1.0000 250.0000
   4.000   0.4866   0.04444   0.02237  -0.0515   1.0000   1.0000   1.0000 250.0000
   4.500   0.5057   0.05003   0.02805  -0.0566   1.0000   1.0000   1.0000 250.0000
   5.000   0.6621   0.06317   0.04195  -0.0881   0.8587   1.0000  18.1446 250.0000
   5.500   0.7293   0.07262   0.05167  -0.0962   0.7731   1.0000  27.9177 250.0000
   6.000   0.7578   0.08142   0.06052  -0.0990   0.7266   1.0000  33.2163 250.0000
   6.500   0.7719   0.09030   0.06941  -0.1013   0.7036   1.0000  35.8259 250.0000
   7.000   0.7717   0.09881   0.07800  -0.1037   0.7093   1.0000  35.1819 250.0000
   7.500   0.7525   0.10588   0.08534  -0.1060   0.7614   1.0000  29.2472 250.0000
   8.000   0.6588   0.10373   0.08322  -0.0949   0.9641   1.0000   6.0901 250.0000
   8.500   0.6383   0.10709   0.08681  -0.0893   1.0000   1.0000   1.0000 250.0000
   9.000   0.6538   0.11535   0.09577  -0.0928   1.0000   1.0000   1.0000 250.0000
   9.500   0.6697   0.12372   0.10512  -0.0963   1.0000   1.0000   1.0000 250.0000
  10.000   0.6862   0.13213   0.11486  -0.0998   1.0000   1.0000   1.0000 250.0000
