  
       XFOIL         Version 6.99
  
 Calculated polar for: af                                              
  
 1 1 Reynolds number fixed          Mach number fixed         
  
 xtrf =   1.000 (top)        1.000 (bottom)  
 Mach =   0.010     Re =     0.045 e 6     Ncrit =   9.000
  
   alpha    CL        CD       CDp       CM     Top_Xtr  Bot_Xtr
  ------ -------- --------- --------- -------- -------- --------
   5.969   0.6500   0.03000   0.01927   0.0093   0.2230   1.0000
