  
       XFOIL         Version 6.99
  
 Calculated polar for: af                                              
  
 1 1 Reynolds number fixed          Mach number fixed         
  
 xtrf =   1.000 (top)        1.000 (bottom)  
 Mach =   0.010     Re =     0.045 e 6     Ncrit =   9.000
  
   alpha    CL        CD       CDp       CM     Top_Xtr  Bot_Xtr
  ------ -------- --------- --------- -------- -------- --------
   4.547   0.6500   0.02585   0.01671  -0.0377   0.7336   1.0000
