  
       XFOIL         Version 6.99
  
 Calculated polar for: af                                              
  
 2 2 Reynolds number ~ 1/sqrt(CL)   Mach number ~ 1/sqrt(CL)  
  
 xtrf =   1.000 (top)        1.000 (bottom)  
 Mach =   0.000     Re =     0.047 e 6     Ncrit =   9.000  9.000
  
   alpha    CL        CD       CDp       CM     Top_Xtr  Bot_Xtr  Top_Itr  Bot_Itr
  ------ -------- --------- --------- -------- -------- -------- -------- --------
   0.000   0.2174   0.01015   0.00180  -0.0528   1.0001   0.9999   1.0000 256.0000
   0.500   0.2678   0.01094   0.00208  -0.0524   1.0001   0.9999   1.0000 256.0000
   1.000   0.3175   0.01180   0.00252  -0.0522   1.0001   0.9999   1.0000 256.0000
   1.500   0.3659   0.01283   0.00325  -0.0525   1.0001   0.9999   1.0000 256.0000
   2.000   0.4407   0.01436   0.00445  -0.0591   0.9790   0.9999   3.4634 256.0000
   2.500   0.5585   0.01534   0.00509  -0.0711   0.9014   0.9999  12.4857 256.0000
   3.000   0.6314   0.01582   0.00506  -0.0705   0.7857   0.9999  25.9484 256.0000
   3.500   0.6787   0.01711   0.00550  -0.0655   0.6710   0.9999  39.2894 256.0000
   4.000   0.7263   0.01896   0.00649  -0.0620   0.5746   0.9999  50.5044 256.0000
   4.500   0.7743   0.02112   0.00781  -0.0591   0.4918   0.9999  60.1477 256.0000
   5.000   0.8219   0.02354   0.00942  -0.0564   0.4139   0.9999  69.2079 256.0000
