  
       XFOIL         Version 6.99
  
 Calculated polar for: af                                              
  
 1 1 Reynolds number fixed          Mach number fixed         
  
 xtrf =   1.000 (top)        1.000 (bottom)  
 Mach =   0.010     Re =     0.066 e 6     Ncrit =   9.000
  
   alpha    CL        CD       CDp       CM     Top_Xtr  Bot_Xtr
  ------ -------- --------- --------- -------- -------- --------
   0.000   0.0293   0.02281   0.01450  -0.0348   0.9563   1.0000
