  
       XFOIL         Version 6.99
  
 Calculated polar for: 424-35+430-20_0.65+2                            
  
 1 1 Reynolds number fixed          Mach number fixed         
  
 xtrf =   1.000 (top)        1.000 (bottom)  
 Mach =   0.000     Re =     0.018 e 6     Ncrit =   9.000  9.000
  
   alpha    CL        CD       CDp       CM     Top_Xtr  Bot_Xtr  Top_Itr  Bot_Itr
  ------ -------- --------- --------- -------- -------- -------- -------- --------
  -1.000   0.0953   0.02258   0.00264  -0.0335   1.0000   1.0000   1.0000 250.0000
  -0.500   0.1472   0.02269   0.00255  -0.0331   1.0000   1.0000   1.0000 250.0000
   0.000   0.1982   0.02289   0.00268  -0.0327   1.0000   1.0000   1.0000 250.0000
   0.500   0.2482   0.02319   0.00300  -0.0323   1.0000   1.0000   1.0000 250.0000
   1.000   0.2971   0.02362   0.00357  -0.0320   1.0000   1.0000   1.0000 250.0000
   1.500   0.3444   0.02427   0.00445  -0.0322   1.0000   1.0000   1.0000 250.0000
   2.000   0.3874   0.02543   0.00596  -0.0333   1.0000   1.0000   1.0000 250.0000
   2.500   0.4190   0.02809   0.00882  -0.0369   1.0000   1.0000   1.0000 250.0000
   3.000   0.4424   0.03226   0.01305  -0.0428   1.0000   1.0000   1.0000 250.0000
   3.500   0.4643   0.03710   0.01799  -0.0489   1.0000   1.0000   1.0000 250.0000
   4.000   0.7269   0.04632   0.02847  -0.0857   0.7438   1.0000  31.2020 250.0000
   4.500   0.7832   0.05219   0.03435  -0.0813   0.6382   1.0000  43.1661 250.0000
   5.000   0.8171   0.05964   0.04165  -0.0772   0.5588   1.0000  52.1476 250.0000
   6.000   0.8517   0.07879   0.06036  -0.0784   0.4700   1.0000  62.2002 250.0000
   6.500   0.8506   0.08958   0.07104  -0.0841   0.4658   1.0000  62.6711 250.0000
   7.000   0.8420   0.10029   0.08176  -0.0912   0.4887   1.0000  60.0789 250.0000
   7.500   0.7944   0.10915   0.09146  -0.1058   0.6388   1.0000  43.0926 250.0000
   8.000   0.6241   0.09879   0.08116  -0.0892   1.0000   1.0000   1.0000 250.0000
   8.500   0.6397   0.10716   0.08998  -0.0927   1.0000   1.0000   1.0000 250.0000
   9.000   0.6555   0.11567   0.09912  -0.0961   1.0000   1.0000   1.0000 250.0000
   9.500   0.7332   0.13362   0.11887  -0.1137   0.9037   1.0000  12.9822 250.0000
  10.000   0.7834   0.14631   0.13375  -0.1189   0.7843   1.0000  26.5963 250.0000
