  
       XFOIL         Version 6.99
  
 Calculated polar for: 424-35+430-20_0.65+2                            
  
 1 1 Reynolds number fixed          Mach number fixed         
  
 xtrf =   1.000 (top)        1.000 (bottom)  
 Mach =   0.000     Re =     0.022 e 6     Ncrit =   9.000  9.000
  
   alpha    CL        CD       CDp       CM     Top_Xtr  Bot_Xtr  Top_Itr  Bot_Itr
  ------ -------- --------- --------- -------- -------- -------- -------- --------
  -1.000   0.0991   0.02040   0.00241  -0.0340   1.0000   1.0000   1.0000 250.0000
  -0.500   0.1512   0.02051   0.00234  -0.0336   1.0000   1.0000   1.0000 250.0000
   0.000   0.2024   0.02070   0.00247  -0.0332   1.0000   1.0000   1.0000 250.0000
   0.500   0.2528   0.02099   0.00279  -0.0328   1.0000   1.0000   1.0000 250.0000
   1.000   0.3022   0.02140   0.00333  -0.0326   1.0000   1.0000   1.0000 250.0000
   1.500   0.3500   0.02204   0.00422  -0.0328   1.0000   1.0000   1.0000 250.0000
   2.000   0.3926   0.02334   0.00585  -0.0344   1.0000   1.0000   1.0000 250.0000
   2.500   0.4208   0.02661   0.00927  -0.0395   1.0000   1.0000   1.0000 250.0000
   3.000   0.5356   0.03264   0.01578  -0.0641   0.9279   1.0000  10.2186 250.0000
   3.500   0.7074   0.03561   0.01930  -0.0760   0.7289   1.0000  32.8897 250.0000
   4.000   0.7530   0.03966   0.02311  -0.0687   0.6244   1.0000  44.7279 250.0000
   4.500   0.7909   0.04499   0.02815  -0.0620   0.5330   1.0000  55.0712 250.0000
   5.000   0.8253   0.05185   0.03475  -0.0578   0.4516   1.0000  64.2744 250.0000
   5.500   0.8544   0.06019   0.04278  -0.0559   0.3881   1.0000  71.4720 250.0000
   6.000   0.8775   0.07002   0.05219  -0.0565   0.3475   1.0000  76.0792 250.0000
   6.500   0.8866   0.08232   0.06433  -0.0632   0.3393   1.0000  77.0211 250.0000
   7.000   0.8796   0.09549   0.07757  -0.0743   0.3564   1.0000  75.0723 250.0000
   7.500   0.6124   0.09043   0.07438  -0.0886   1.0000   1.0000   1.0000 250.0000
   8.000   0.6292   0.09883   0.08309  -0.0924   0.9986   1.0000   1.4081 250.0000
   8.500   0.7472   0.12079   0.10614  -0.1143   0.8063   1.0000  24.0966 250.0000
   9.000   0.7890   0.13257   0.11850  -0.1152   0.7003   1.0000  36.1305 250.0000
  10.000   0.8350   0.15142   0.13949  -0.1137   0.5719   1.0000  50.6693 250.0000
