  
       XFOIL         Version 6.99
  
 Calculated polar for: 424-35+430-20_0.65+2                            
  
 1 1 Reynolds number fixed          Mach number fixed         
  
 xtrf =   1.000 (top)        1.000 (bottom)  
 Mach =   0.000     Re =     0.024 e 6     Ncrit =   9.000  9.000
  
   alpha    CL        CD       CDp       CM     Top_Xtr  Bot_Xtr  Top_Itr  Bot_Itr
  ------ -------- --------- --------- -------- -------- -------- -------- --------
  -1.000   0.1003   0.01973   0.00234  -0.0342   1.0000   1.0000   1.0000 250.0000
  -0.500   0.1525   0.01984   0.00227  -0.0338   1.0000   1.0000   1.0000 250.0000
   0.000   0.2038   0.02003   0.00240  -0.0334   1.0000   1.0000   1.0000 250.0000
   0.500   0.2543   0.02031   0.00272  -0.0330   1.0000   1.0000   1.0000 250.0000
   1.000   0.3038   0.02072   0.00326  -0.0327   1.0000   1.0000   1.0000 250.0000
   1.500   0.3518   0.02135   0.00414  -0.0330   1.0000   1.0000   1.0000 250.0000
   2.000   0.3941   0.02272   0.00584  -0.0348   1.0000   1.0000   1.0000 250.0000
   2.500   0.4213   0.02621   0.00947  -0.0405   1.0000   1.0000   1.0000 250.0000
   3.000   0.6310   0.03136   0.01549  -0.0754   0.8336   1.0000  20.9867 250.0000
   3.500   0.7085   0.03377   0.01781  -0.0710   0.6985   1.0000  36.3439 250.0000
   4.000   0.7498   0.03778   0.02150  -0.0636   0.5985   1.0000  47.6532 250.0000
   5.000   0.8240   0.04931   0.03241  -0.0529   0.4236   1.0000  67.4444 250.0000
   5.500   0.8568   0.05682   0.03943  -0.0495   0.3561   1.0000  75.1100 250.0000
   6.000   0.8801   0.06727   0.04963  -0.0518   0.3199   1.0000  79.2343 250.0000
   6.500   0.8937   0.07897   0.06103  -0.0566   0.3038   1.0000  81.0676 250.0000
   7.000   0.8903   0.09312   0.07528  -0.0682   0.3218   1.0000  79.0134 250.0000
   8.000   0.7226   0.11044   0.09586  -0.1114   0.8380   1.0000  20.4824 250.0000
   8.500   0.7738   0.12315   0.10891  -0.1137   0.7153   1.0000  34.4375 250.0000
   9.000   0.8048   0.13367   0.11987  -0.1130   0.6335   1.0000  43.6950 250.0000
   9.500   0.8319   0.14398   0.13069  -0.1121   0.5686   1.0000  51.0403 250.0000
  10.000   0.8460   0.15228   0.14031  -0.1115   0.5261   1.0000  55.8499 250.0000
