  
       XFOIL         Version 6.99
  
 Calculated polar for: 424-35+430-20_0.65+2                            
  
 1 1 Reynolds number fixed          Mach number fixed         
  
 xtrf =   1.000 (top)        1.000 (bottom)  
 Mach =   0.000     Re =     0.003 e 6     Ncrit =   9.000  9.000
  
   alpha    CL        CD       CDp       CM     Top_Xtr  Bot_Xtr  Top_Itr  Bot_Itr
  ------ -------- --------- --------- -------- -------- -------- -------- --------
  -1.000   0.0550   0.06287   0.00649  -0.0277   1.0000   1.0000   1.0000 250.0000
  -0.500   0.1039   0.06291   0.00615  -0.0278   1.0000   1.0000   1.0000 250.0000
   0.000   0.1518   0.06309   0.00612  -0.0277   1.0000   1.0000   1.0000 250.0000
   0.500   0.1982   0.06340   0.00645  -0.0275   1.0000   1.0000   1.0000 250.0000
   1.000   0.2428   0.06385   0.00711  -0.0273   1.0000   1.0000   1.0000 250.0000
   1.500   0.2859   0.06455   0.00810  -0.0271   1.0000   1.0000   1.0000 250.0000
   2.000   0.3272   0.06555   0.00946  -0.0269   1.0000   1.0000   1.0000 250.0000
   2.500   0.3660   0.06683   0.01121  -0.0270   1.0000   1.0000   1.0000 250.0000
   3.000   0.4016   0.06850   0.01336  -0.0272   1.0000   1.0000   1.0000 250.0000
   3.500   0.4336   0.07068   0.01606  -0.0278   1.0000   1.0000   1.0000 250.0000
   4.000   0.4610   0.07349   0.01924  -0.0288   1.0000   1.0000   1.0000 250.0000
   4.500   0.4850   0.07705   0.02301  -0.0305   1.0000   1.0000   1.0000 250.0000
   5.000   0.5055   0.08129   0.02745  -0.0327   1.0000   1.0000   1.0000 250.0000
   5.500   0.5237   0.08609   0.03240  -0.0356   1.0000   1.0000   1.0000 250.0000
   6.000   0.5406   0.09139   0.03791  -0.0388   1.0000   1.0000   1.0000 250.0000
   6.500   0.5566   0.09711   0.04399  -0.0424   1.0000   1.0000   1.0000 250.0000
   7.000   0.5719   0.10317   0.05056  -0.0463   1.0000   1.0000   1.0000 250.0000
   7.500   0.5870   0.10950   0.05760  -0.0503   1.0000   1.0000   1.0000 250.0000
   8.000   0.6020   0.11605   0.06510  -0.0544   1.0000   1.0000   1.0000 250.0000
   8.500   0.6173   0.12277   0.07309  -0.0585   1.0000   1.0000   1.0000 250.0000
   9.000   0.6329   0.12961   0.08157  -0.0628   1.0000   1.0000   1.0000 250.0000
   9.500   0.6490   0.13650   0.09050  -0.0671   1.0000   1.0000   1.0000 250.0000
  10.000   0.6656   0.14343   0.09989  -0.0714   1.0000   1.0000   1.0000 250.0000
