  
       XFOIL         Version 6.99
  
 Calculated polar for: 424-35+430-20_0.65+2                            
  
 1 1 Reynolds number fixed          Mach number fixed         
  
 xtrf =   1.000 (top)        1.000 (bottom)  
 Mach =   0.000     Re =     0.026 e 6     Ncrit =   9.000  9.000
  
   alpha    CL        CD       CDp       CM     Top_Xtr  Bot_Xtr  Top_Itr  Bot_Itr
  ------ -------- --------- --------- -------- -------- -------- -------- --------
  -1.000   0.1025   0.01857   0.00221  -0.0346   1.0000   1.0000   1.0000 250.0000
  -0.500   0.1548   0.01868   0.00216  -0.0341   1.0000   1.0000   1.0000 250.0000
   0.000   0.2062   0.01886   0.00229  -0.0337   1.0000   1.0000   1.0000 250.0000
   0.500   0.2569   0.01914   0.00260  -0.0333   1.0000   1.0000   1.0000 250.0000
   1.000   0.3067   0.01953   0.00313  -0.0331   1.0000   1.0000   1.0000 250.0000
   1.500   0.3550   0.02017   0.00402  -0.0334   1.0000   1.0000   1.0000 250.0000
   2.000   0.3965   0.02169   0.00587  -0.0357   1.0000   1.0000   1.0000 250.0000
   2.500   0.4219   0.02560   0.00989  -0.0425   1.0000   1.0000   1.0000 250.0000
   3.000   0.6548   0.02816   0.01312  -0.0702   0.7653   1.0000  28.7563 250.0000
   3.500   0.7019   0.03086   0.01540  -0.0626   0.6538   1.0000  41.3965 250.0000
   4.000   0.7421   0.03471   0.01887  -0.0560   0.5574   1.0000  52.3093 250.0000
   4.500   0.7824   0.03941   0.02320  -0.0506   0.4657   1.0000  62.6829 250.0000
   5.000   0.8208   0.04493   0.02825  -0.0457   0.3798   1.0000  72.4110 250.0000
   5.500   0.8566   0.05177   0.03454  -0.0424   0.3101   1.0000  80.3448 250.0000
   6.000   0.8871   0.06085   0.04314  -0.0423   0.2681   1.0000  85.1459 250.0000
   7.500   0.8682   0.10624   0.08982  -0.0833   0.3647   1.0000  74.1294 250.0000
   8.000   0.7872   0.11612   0.10208  -0.1112   0.6549   1.0000  41.2776 250.0000
   8.500   0.8142   0.12635   0.11230  -0.1098   0.5859   1.0000  49.0810 250.0000
   9.000   0.8281   0.13482   0.12116  -0.1077   0.5283   1.0000  55.6032 250.0000
   9.500   0.8479   0.14450   0.13130  -0.1074   0.4891   1.0000  60.0302 250.0000
  10.000   0.8553   0.15183   0.13996  -0.1066   0.4504   1.0000  64.4166 250.0000
