  
       XFOIL         Version 6.99
  
 Calculated polar for: 20120105-25-20_0.65+2                           
  
 1 1 Reynolds number fixed          Mach number fixed         
  
 xtrf =   1.000 (top)        1.000 (bottom)  
 Mach =   0.000     Re =     0.002 e 6     Ncrit =   9.000
  
   alpha    CL        CD       CDp       CM     Top_Xtr  Bot_Xtr  Top_Itr  Bot_Itr
  ------ -------- --------- --------- -------- -------- -------- -------- --------
  -1.000   0.0504   0.08387   0.00898  -0.0283   1.0000   1.0000   1.0000 257.0000
  -0.500   0.0965   0.08393   0.00842  -0.0284   1.0000   1.0000   1.0000 257.0000
   0.000   0.1414   0.08418   0.00835  -0.0284   1.0000   1.0000   1.0000 257.0000
   0.500   0.1850   0.08459   0.00859  -0.0283   1.0000   1.0000   1.0000 257.0000
   1.000   0.2267   0.08517   0.00920  -0.0281   1.0000   1.0000   1.0000 257.0000
   1.500   0.2658   0.08594   0.01016  -0.0277   1.0000   1.0000   1.0000 257.0000
   2.000   0.3025   0.08704   0.01148  -0.0273   1.0000   1.0000   1.0000 257.0000
   2.500   0.3371   0.08851   0.01314  -0.0271   1.0000   1.0000   1.0000 257.0000
   3.000   0.3685   0.09035   0.01517  -0.0269   1.0000   1.0000   1.0000 257.0000
   3.500   0.3965   0.09264   0.01762  -0.0269   1.0000   1.0000   1.0000 257.0000
   4.000   0.4207   0.09544   0.02039  -0.0271   1.0000   1.0000   1.0000 257.0000
   4.500   0.4416   0.09885   0.02365  -0.0277   1.0000   1.0000   1.0000 257.0000
   5.000   0.4592   0.10285   0.02725  -0.0286   1.0000   1.0000   1.0000 257.0000
   5.500   0.4740   0.10738   0.03120  -0.0299   1.0000   1.0000   1.0000 257.0000
   6.000   0.4867   0.11234   0.03551  -0.0315   1.0000   1.0000   1.0000 257.0000
   6.500   0.4980   0.11765   0.04026  -0.0334   1.0000   1.0000   1.0000 257.0000
   7.000   0.5082   0.12323   0.04520  -0.0355   1.0000   1.0000   1.0000 257.0000
   7.500   0.5175   0.12899   0.05040  -0.0376   1.0000   1.0000   1.0000 257.0000
   8.000   0.5261   0.13489   0.05584  -0.0399   1.0000   1.0000   1.0000 257.0000
   8.500   0.5342   0.14085   0.06158  -0.0422   1.0000   1.0000   1.0000 257.0000
   9.000   0.5418   0.14683   0.06745  -0.0444   1.0000   1.0000   1.0000 257.0000
   9.500   0.5491   0.15281   0.07350  -0.0467   1.0000   1.0000   1.0000 257.0000
  10.000   0.5562   0.15877   0.07973  -0.0490   1.0000   1.0000   1.0000 257.0000
