  
       XFOIL         Version 6.99
  
 Calculated polar for: 20120105-25-20_0.65+2                           
  
 1 1 Reynolds number fixed          Mach number fixed         
  
 xtrf =   1.000 (top)        1.000 (bottom)  
 Mach =   0.000     Re =     0.170 e 6     Ncrit =   9.000  9.000
  
   alpha    CL        CD       CDp       CM     Top_Xtr  Bot_Xtr  Top_Itr  Bot_Itr
  ------ -------- --------- --------- -------- -------- -------- -------- --------
  -1.000   0.1534   0.00747   0.00117  -0.0435   1.0000   1.0000   1.0000 257.0000
  -0.500   0.2074   0.00758   0.00120  -0.0431   1.0000   1.0000   1.0000 257.0000
   0.000   0.2611   0.00773   0.00133  -0.0428   1.0000   1.0000   1.0000 257.0000
   0.500   0.3397   0.00788   0.00151  -0.0476   0.9745   1.0000  13.8052 257.0000
   1.000   0.4289   0.00789   0.00128  -0.0525   0.8203   1.0000  36.3296 257.0000
   1.500   0.4738   0.00903   0.00123  -0.0484   0.5896   1.0000  57.3469 257.0000
   2.000   0.5227   0.01018   0.00147  -0.0466   0.4541   1.0000  68.4968 257.0000
   2.500   0.5744   0.01112   0.00181  -0.0457   0.3780   1.0000  74.8641 257.0000
   3.000   0.6269   0.01198   0.00219  -0.0449   0.3220   1.0000  79.7340 257.0000
   3.500   0.6794   0.01287   0.00260  -0.0442   0.2747   1.0000  84.0459 257.0000
   4.000   0.7319   0.01374   0.00307  -0.0434   0.2309   1.0000  88.3019 257.0000
   4.500   0.7840   0.01471   0.00358  -0.0426   0.1909   1.0000  92.4924 257.0000
   5.000   0.8356   0.01578   0.00414  -0.0419   0.1538   1.0000  96.7494 257.0000
   5.500   0.8865   0.01702   0.00480  -0.0410   0.1171   1.0000 101.4462 257.0000
   6.000   0.9360   0.01864   0.00566  -0.0401   0.0817   1.0000 106.7252 257.0000
   6.500   0.9835   0.02101   0.00697  -0.0388   0.0563   1.0000 111.2437 257.0000
   7.000   1.0295   0.02405   0.00872  -0.0373   0.0431   1.0000 114.0018 257.0000
   7.500   1.0748   0.02764   0.01135  -0.0356   0.0354   1.0000 115.8157 257.0000
   8.000   1.1163   0.03253   0.01518  -0.0338   0.0313   1.0000 116.8585 257.0000
   8.500   1.1434   0.04024   0.02248  -0.0314   0.0291   1.0000 117.4482 257.0000
   9.000   1.1446   0.05165   0.03373  -0.0298   0.0294   1.0000 117.3775 257.0000
   9.500   1.1205   0.06367   0.04567  -0.0308   0.0301   1.0000 117.1894 257.0000
  10.000   1.0884   0.07457   0.05635  -0.0363   0.0305   1.0000 117.0637 257.0000
