  
       XFOIL         Version 6.99
  
 Calculated polar for: 20120105-25-20_0.65+2                           
  
 1 1 Reynolds number fixed          Mach number fixed         
  
 xtrf =   1.000 (top)        1.000 (bottom)  
 Mach =   0.000     Re =     0.021 e 6     Ncrit =   9.000  9.000
  
   alpha    CL        CD       CDp       CM     Top_Xtr  Bot_Xtr  Top_Itr  Bot_Itr
  ------ -------- --------- --------- -------- -------- -------- -------- --------
  -1.000   0.1171   0.02130   0.00296  -0.0381   1.0000   1.0000   1.0000 257.0000
  -0.500   0.1689   0.02145   0.00288  -0.0377   1.0000   1.0000   1.0000 257.0000
   0.000   0.2196   0.02169   0.00302  -0.0372   1.0000   1.0000   1.0000 257.0000
   0.500   0.2692   0.02204   0.00337  -0.0368   1.0000   1.0000   1.0000 257.0000
   1.000   0.3177   0.02255   0.00398  -0.0365   1.0000   1.0000   1.0000 257.0000
   1.500   0.3642   0.02332   0.00497  -0.0367   1.0000   1.0000   1.0000 257.0000
   2.000   0.4054   0.02481   0.00675  -0.0383   1.0000   1.0000   1.0000 257.0000
   2.500   0.4304   0.02854   0.01068  -0.0440   1.0000   1.0000   1.0000 257.0000
   3.000   0.6364   0.03586   0.01892  -0.0818   0.8323   1.0000  35.0398 257.0000
   3.500   0.7222   0.03925   0.02236  -0.0806   0.7037   1.0000  47.5699 257.0000
   4.000   0.7679   0.04383   0.02677  -0.0762   0.6219   1.0000  54.6393 257.0000
   4.500   0.8089   0.04948   0.03223  -0.0729   0.5573   1.0000  60.0190 257.0000
   5.000   0.8425   0.05695   0.03958  -0.0727   0.5082   1.0000  64.0459 257.0000
   5.500   0.8616   0.06646   0.04905  -0.0762   0.4780   1.0000  66.5245 257.0000
   6.000   0.8768   0.07659   0.05897  -0.0797   0.4590   1.0000  68.0892 257.0000
   6.500   0.8684   0.08817   0.07050  -0.0882   0.4693   1.0000  67.2450 257.0000
   7.500   0.6176   0.09219   0.07529  -0.0908   1.0000   1.0000   1.0000 257.0000
   8.000   0.6343   0.10000   0.08334  -0.0940   1.0000   1.0000   1.0000 257.0000
   8.500   0.6507   0.10802   0.09172  -0.0971   1.0000   1.0000   1.0000 257.0000
   9.000   0.7330   0.12524   0.11026  -0.1147   0.8873   1.0000  28.5612 257.0000
   9.500   0.7821   0.13792   0.12398  -0.1196   0.7821   1.0000  40.2361 257.0000
  10.000   0.8201   0.14946   0.13650  -0.1212   0.6984   1.0000  48.0389 257.0000
