  
       XFOIL         Version 6.99
  
 Calculated polar for: 20120105-25-20_0.65+2                           
  
 1 1 Reynolds number fixed          Mach number fixed         
  
 xtrf =   1.000 (top)        1.000 (bottom)  
 Mach =   0.000     Re =     0.037 e 6     Ncrit =   9.000  9.000
  
   alpha    CL        CD       CDp       CM     Top_Xtr  Bot_Xtr  Top_Itr  Bot_Itr
  ------ -------- --------- --------- -------- -------- -------- -------- --------
  -1.000   0.1285   0.01583   0.00228  -0.0397   1.0000   1.0000   1.0000 257.0000
  -0.500   0.1807   0.01597   0.00224  -0.0392   1.0000   1.0000   1.0000 257.0000
   0.000   0.2321   0.01619   0.00239  -0.0387   1.0000   1.0000   1.0000 257.0000
   0.500   0.2828   0.01650   0.00272  -0.0383   1.0000   1.0000   1.0000 257.0000
   1.000   0.3325   0.01696   0.00329  -0.0382   1.0000   1.0000   1.0000 257.0000
   1.500   0.3800   0.01777   0.00432  -0.0388   1.0000   1.0000   1.0000 257.0000
   2.000   0.5246   0.02008   0.00729  -0.0618   0.8945   1.0000  27.6283 257.0000
   2.500   0.6035   0.02107   0.00762  -0.0581   0.7012   1.0000  47.7904 257.0000
   3.000   0.6475   0.02330   0.00908  -0.0525   0.5903   1.0000  57.2846 257.0000
   3.500   0.6951   0.02590   0.01113  -0.0490   0.5058   1.0000  64.2478 257.0000
   4.000   0.7440   0.02894   0.01367  -0.0463   0.4365   1.0000  69.9490 257.0000
   4.500   0.7921   0.03259   0.01696  -0.0442   0.3773   1.0000  74.9249 257.0000
   5.000   0.8383   0.03715   0.02135  -0.0426   0.3251   1.0000  79.4537 257.0000
   5.500   0.8813   0.04265   0.02660  -0.0410   0.2796   1.0000  83.5928 257.0000
   6.000   0.9191   0.04952   0.03316  -0.0400   0.2413   1.0000  87.2655 257.0000
   6.500   0.9497   0.05821   0.04147  -0.0400   0.2135   1.0000  90.0859 257.0000
   7.000   0.9541   0.07304   0.05672  -0.0472   0.2098   1.0000  90.4773 257.0000
   7.500   0.9460   0.08963   0.07337  -0.0584   0.2248   1.0000  88.9247 257.0000
   8.000   0.8480   0.11521   0.10199  -0.1026   0.4672   1.0000  67.4162 257.0000
   8.500   0.8680   0.12459   0.11082  -0.1007   0.4231   1.0000  71.0672 257.0000
   9.000   0.8755   0.13287   0.11909  -0.0996   0.3872   1.0000  74.0822 257.0000
   9.500   0.8771   0.14031   0.12721  -0.0994   0.3564   1.0000  76.7191 257.0000
  10.000   0.8910   0.14950   0.13654  -0.0993   0.3294   1.0000  79.0758 257.0000
