  
       XFOIL         Version 6.99
  
 Calculated polar for: 20120105-25-20_0.65+2                           
  
 1 1 Reynolds number fixed          Mach number fixed         
  
 xtrf =   1.000 (top)        1.000 (bottom)  
 Mach =   0.000     Re =     0.004 e 6     Ncrit =   9.000  9.000
  
   alpha    CL        CD       CDp       CM     Top_Xtr  Bot_Xtr  Top_Itr  Bot_Itr
  ------ -------- --------- --------- -------- -------- -------- -------- --------
  -1.000   0.0796   0.04926   0.00611  -0.0330   1.0000   1.0000   1.0000 257.0000
  -0.500   0.1292   0.04937   0.00580  -0.0329   1.0000   1.0000   1.0000 257.0000
   0.000   0.1776   0.04964   0.00582  -0.0327   1.0000   1.0000   1.0000 257.0000
   0.500   0.2248   0.05009   0.00619  -0.0325   1.0000   1.0000   1.0000 257.0000
   1.000   0.2704   0.05071   0.00686  -0.0322   1.0000   1.0000   1.0000 257.0000
   1.500   0.3139   0.05155   0.00789  -0.0320   1.0000   1.0000   1.0000 257.0000
   2.000   0.3550   0.05267   0.00929  -0.0320   1.0000   1.0000   1.0000 257.0000
   2.500   0.3931   0.05417   0.01114  -0.0323   1.0000   1.0000   1.0000 257.0000
   3.000   0.4267   0.05623   0.01357  -0.0331   1.0000   1.0000   1.0000 257.0000
   3.500   0.4553   0.05908   0.01666  -0.0346   1.0000   1.0000   1.0000 257.0000
   4.500   0.4978   0.06736   0.02508  -0.0403   1.0000   1.0000   1.0000 257.0000
   5.000   0.5154   0.07247   0.03022  -0.0441   1.0000   1.0000   1.0000 257.0000
   5.500   0.5320   0.07805   0.03585  -0.0480   1.0000   1.0000   1.0000 257.0000
   6.000   0.5481   0.08399   0.04192  -0.0520   1.0000   1.0000   1.0000 257.0000
   6.500   0.5638   0.09023   0.04837  -0.0560   1.0000   1.0000   1.0000 257.0000
   7.000   0.5793   0.09675   0.05519  -0.0600   1.0000   1.0000   1.0000 257.0000
   7.500   0.5948   0.10350   0.06238  -0.0639   1.0000   1.0000   1.0000 257.0000
   8.000   0.6103   0.11042   0.06995  -0.0678   1.0000   1.0000   1.0000 257.0000
   8.500   0.6260   0.11747   0.07790  -0.0717   1.0000   1.0000   1.0000 257.0000
   9.000   0.6420   0.12460   0.08624  -0.0755   1.0000   1.0000   1.0000 257.0000
   9.500   0.6583   0.13180   0.09500  -0.0794   1.0000   1.0000   1.0000 257.0000
  10.000   0.6751   0.13903   0.10419  -0.0833   1.0000   1.0000   1.0000 257.0000
