  
       XFOIL         Version 6.99
  
 Calculated polar for: 20120105-25-20_0.65+2                           
  
 1 1 Reynolds number fixed          Mach number fixed         
  
 xtrf =   1.000 (top)        1.000 (bottom)  
 Mach =   0.000     Re =     0.046 e 6     Ncrit =   9.000
  
   alpha    CL        CD       CDp       CM     Top_Xtr  Bot_Xtr  Top_Itr  Bot_Itr
  ------ -------- --------- --------- -------- -------- -------- -------- --------
  -1.000   0.1325   0.01413   0.00206  -0.0403   1.0000   1.0000   1.0000 257.0000
  -0.500   0.1850   0.01426   0.00204  -0.0398   1.0000   1.0000   1.0000 257.0000
   0.000   0.2367   0.01447   0.00218  -0.0393   1.0000   1.0000   1.0000 257.0000
   0.500   0.2877   0.01477   0.00251  -0.0389   1.0000   1.0000   1.0000 257.0000
   1.000   0.3379   0.01522   0.00306  -0.0388   1.0000   1.0000   1.0000 257.0000
   1.500   0.3859   0.01607   0.00414  -0.0398   1.0000   1.0000   1.0000 257.0000
   2.000   0.5450   0.01689   0.00524  -0.0582   0.7993   1.0000  38.5058 257.0000
   2.500   0.5896   0.01859   0.00583  -0.0513   0.6340   1.0000  53.6189 257.0000
   3.000   0.6373   0.02066   0.00709  -0.0477   0.5311   1.0000  62.1667 257.0000
   3.500   0.6872   0.02293   0.00878  -0.0454   0.4523   1.0000  68.6394 257.0000
   4.000   0.7372   0.02549   0.01076  -0.0433   0.3887   1.0000  73.9565 257.0000
   4.500   0.7867   0.02846   0.01334  -0.0416   0.3325   1.0000  78.8047 257.0000
   5.000   0.8350   0.03195   0.01646  -0.0398   0.2824   1.0000  83.3280 257.0000
   5.500   0.8813   0.03594   0.02001  -0.0380   0.2364   1.0000  87.7539 257.0000
   6.000   0.9253   0.04053   0.02379  -0.0359   0.1955   1.0000  91.9949 257.0000
   6.500   0.9606   0.04816   0.03136  -0.0350   0.1655   1.0000  95.3638 257.0000
   7.000   0.9843   0.05850   0.04155  -0.0357   0.1494   1.0000  97.2877 257.0000
   7.500   0.9833   0.07383   0.05714  -0.0414   0.1498   1.0000  97.2276 257.0000
   9.000   0.7921   0.12992   0.10417  -0.0815   0.3153   1.0000  80.3250 257.0000
   9.500   0.7926   0.13838   0.11140  -0.0814   0.2938   1.0000  82.2772 257.0000
  10.000   0.7954   0.14689   0.11874  -0.0813   0.2737   1.0000  84.1410 257.0000
