  
       XFOIL         Version 6.99
  
 Calculated polar for: 20120105-25-20_0.65+2                           
  
 1 1 Reynolds number fixed          Mach number fixed         
  
 xtrf =   1.000 (top)        1.000 (bottom)  
 Mach =   0.000     Re =     0.005 e 6     Ncrit =   9.000  9.000
  
   alpha    CL        CD       CDp       CM     Top_Xtr  Bot_Xtr  Top_Itr  Bot_Itr
  ------ -------- --------- --------- -------- -------- -------- -------- --------
  -1.000   0.0871   0.04171   0.00530  -0.0340   1.0000   1.0000   1.0000 257.0000
  -0.500   0.1375   0.04187   0.00505  -0.0339   1.0000   1.0000   1.0000 257.0000
   0.000   0.1866   0.04216   0.00511  -0.0336   1.0000   1.0000   1.0000 257.0000
   0.500   0.2343   0.04260   0.00549  -0.0333   1.0000   1.0000   1.0000 257.0000
   1.000   0.2804   0.04320   0.00616  -0.0331   1.0000   1.0000   1.0000 257.0000
   1.500   0.3243   0.04403   0.00717  -0.0329   1.0000   1.0000   1.0000 257.0000
   2.000   0.3658   0.04515   0.00858  -0.0330   1.0000   1.0000   1.0000 257.0000
   2.500   0.4035   0.04673   0.01050  -0.0335   1.0000   1.0000   1.0000 257.0000
   3.000   0.4358   0.04906   0.01313  -0.0348   1.0000   1.0000   1.0000 257.0000
   3.500   0.4614   0.05240   0.01663  -0.0373   1.0000   1.0000   1.0000 257.0000
   4.000   0.4817   0.05671   0.02098  -0.0408   1.0000   1.0000   1.0000 257.0000
   4.500   0.4998   0.06170   0.02599  -0.0450   1.0000   1.0000   1.0000 257.0000
   5.000   0.5169   0.06718   0.03149  -0.0493   1.0000   1.0000   1.0000 257.0000
   5.500   0.5335   0.07304   0.03742  -0.0536   1.0000   1.0000   1.0000 257.0000
   6.000   0.5499   0.07924   0.04373  -0.0579   1.0000   1.0000   1.0000 257.0000
   6.500   0.5660   0.08573   0.05040  -0.0620   1.0000   1.0000   1.0000 257.0000
   7.000   0.5818   0.09248   0.05740  -0.0659   1.0000   1.0000   1.0000 257.0000
   7.500   0.5975   0.09944   0.06473  -0.0698   1.0000   1.0000   1.0000 257.0000
   8.000   0.6131   0.10658   0.07241  -0.0735   1.0000   1.0000   1.0000 257.0000
   8.500   0.6288   0.11385   0.08045  -0.0772   1.0000   1.0000   1.0000 257.0000
   9.000   0.6447   0.12122   0.08888  -0.0809   1.0000   1.0000   1.0000 257.0000
   9.500   0.6610   0.12864   0.09771  -0.0846   1.0000   1.0000   1.0000 257.0000
  10.000   0.6777   0.13610   0.10696  -0.0884   1.0000   1.0000   1.0000 257.0000
