  
       XFOIL         Version 6.99
  
 Calculated polar for: 20140417-47.5_0.65+2                            
  
 1 1 Reynolds number fixed          Mach number fixed         
  
 xtrf =   1.000 (top)        1.000 (bottom)  
 Mach =   0.000     Re =     0.011 e 6     Ncrit =   9.000  9.000
  
   alpha    CL        CD       CDp       CM     Top_Xtr  Bot_Xtr  Top_Itr  Bot_Itr
  ------ -------- --------- --------- -------- -------- -------- -------- --------
  -1.000   0.1010   0.03044   0.00408  -0.0378   1.0000   1.0000   1.0000 249.0000
  -0.500   0.1503   0.03066   0.00398  -0.0375   1.0000   1.0000   1.0000 249.0000
   0.000   0.1984   0.03100   0.00415  -0.0371   1.0000   1.0000   1.0000 249.0000
   0.500   0.2454   0.03148   0.00457  -0.0367   1.0000   1.0000   1.0000 249.0000
   1.000   0.2909   0.03215   0.00525  -0.0365   1.0000   1.0000   1.0000 249.0000
   1.500   0.3345   0.03306   0.00625  -0.0364   1.0000   1.0000   1.0000 249.0000
   2.000   0.3754   0.03435   0.00767  -0.0368   1.0000   1.0000   1.0000 249.0000
   2.500   0.4122   0.03623   0.00967  -0.0378   1.0000   1.0000   1.0000 249.0000
   3.000   0.4425   0.03898   0.01252  -0.0398   1.0000   1.0000   1.0000 249.0000
   3.500   0.4669   0.04274   0.01633  -0.0431   1.0000   1.0000   1.0000 249.0000
   4.000   0.4876   0.04735   0.02098  -0.0473   1.0000   1.0000   1.0000 249.0000
   4.500   0.5064   0.05258   0.02627  -0.0519   1.0000   1.0000   1.0000 249.0000
   5.000   0.5242   0.05827   0.03203  -0.0564   1.0000   1.0000   1.0000 249.0000
   5.500   0.5414   0.06435   0.03819  -0.0608   1.0000   1.0000   1.0000 249.0000
   6.000   0.5579   0.07078   0.04471  -0.0650   1.0000   1.0000   1.0000 249.0000
   6.500   0.5740   0.07756   0.05161  -0.0691   1.0000   1.0000   1.0000 249.0000
   7.000   0.5897   0.08464   0.05887  -0.0731   1.0000   1.0000   1.0000 249.0000
   7.500   0.6050   0.09200   0.06648  -0.0769   1.0000   1.0000   1.0000 249.0000
   8.000   0.6202   0.09961   0.07445  -0.0806   1.0000   1.0000   1.0000 249.0000
   8.500   0.6353   0.10742   0.08279  -0.0842   1.0000   1.0000   1.0000 249.0000
   9.000   0.6506   0.11539   0.09153  -0.0879   1.0000   1.0000   1.0000 249.0000
   9.500   0.6662   0.12347   0.10070  -0.0915   1.0000   1.0000   1.0000 249.0000
  10.000   0.6823   0.13163   0.11031  -0.0952   1.0000   1.0000   1.0000 249.0000
