  
       XFOIL         Version 6.99
  
 Calculated polar for: 20140417-47.5_0.65+2                            
  
 1 1 Reynolds number fixed          Mach number fixed         
  
 xtrf =   1.000 (top)        1.000 (bottom)  
 Mach =   0.000     Re =     0.022 e 6     Ncrit =   9.000  9.000
  
   alpha    CL        CD       CDp       CM     Top_Xtr  Bot_Xtr  Top_Itr  Bot_Itr
  ------ -------- --------- --------- -------- -------- -------- -------- --------
  -1.000   0.1186   0.02100   0.00301  -0.0404   1.0000   1.0000   1.0000 249.0000
  -0.500   0.1692   0.02122   0.00301  -0.0400   1.0000   1.0000   1.0000 249.0000
   0.000   0.2189   0.02155   0.00323  -0.0397   1.0000   1.0000   1.0000 249.0000
   0.500   0.2674   0.02201   0.00366  -0.0394   1.0000   1.0000   1.0000 249.0000
   1.000   0.3144   0.02267   0.00435  -0.0394   1.0000   1.0000   1.0000 249.0000
   1.500   0.3595   0.02364   0.00541  -0.0398   1.0000   1.0000   1.0000 249.0000
   2.000   0.3997   0.02523   0.00711  -0.0410   1.0000   1.0000   1.0000 249.0000
   2.500   0.4309   0.02802   0.01000  -0.0441   1.0000   1.0000   1.0000 249.0000
   3.000   0.4539   0.03223   0.01430  -0.0492   1.0000   1.0000   1.0000 249.0000
   3.500   0.6519   0.03917   0.02201  -0.0831   0.8462   1.0000  19.5200 249.0000
   4.000   0.7665   0.04174   0.02485  -0.0854   0.7115   1.0000  34.8372 249.0000
   4.500   0.8180   0.04548   0.02842  -0.0797   0.6206   1.0000  45.2090 249.0000
   5.000   0.8600   0.05042   0.03308  -0.0741   0.5428   1.0000  54.0217 249.0000
   5.500   0.8902   0.05738   0.03976  -0.0709   0.4795   1.0000  61.1804 249.0000
   6.000   0.9127   0.06585   0.04789  -0.0695   0.4294   1.0000  66.8605 249.0000
   6.500   0.9205   0.07649   0.05818  -0.0717   0.4006   1.0000  70.1316 249.0000
   7.000   0.9151   0.08852   0.06994  -0.0773   0.3922   1.0000  71.0768 249.0000
   7.500   0.8863   0.10148   0.08303  -0.0878   0.4218   1.0000  67.7247 249.0000
   8.500   0.7163   0.11483   0.09887  -0.1104   0.8907   1.0000  14.4480 249.0000
   9.000   0.7640   0.12717   0.11201  -0.1160   0.7955   1.0000  25.2916 249.0000
   9.500   0.7975   0.13772   0.12358  -0.1174   0.7145   1.0000  34.4894 249.0000
  10.000   0.8262   0.14790   0.13496  -0.1180   0.6473   1.0000  42.1922 249.0000
