  
       XFOIL         Version 6.99
  
 Calculated polar for: 20140417-47.5_0.65+2                            
  
 1 1 Reynolds number fixed          Mach number fixed         
  
 xtrf =   1.000 (top)        1.000 (bottom)  
 Mach =   0.000     Re =     0.026 e 6     Ncrit =   9.000  9.000
  
   alpha    CL        CD       CDp       CM     Top_Xtr  Bot_Xtr  Top_Itr  Bot_Itr
  ------ -------- --------- --------- -------- -------- -------- -------- --------
  -1.000   0.1224   0.01933   0.00282  -0.0409   1.0000   1.0000   1.0000 249.0000
  -0.500   0.1734   0.01955   0.00283  -0.0406   1.0000   1.0000   1.0000 249.0000
   0.000   0.2233   0.01988   0.00305  -0.0403   1.0000   1.0000   1.0000 249.0000
   0.500   0.2721   0.02033   0.00349  -0.0401   1.0000   1.0000   1.0000 249.0000
   1.000   0.3196   0.02099   0.00418  -0.0401   1.0000   1.0000   1.0000 249.0000
   1.500   0.3648   0.02199   0.00526  -0.0406   1.0000   1.0000   1.0000 249.0000
   2.000   0.4042   0.02371   0.00710  -0.0422   1.0000   1.0000   1.0000 249.0000
   2.500   0.4334   0.02688   0.01038  -0.0461   1.0000   1.0000   1.0000 249.0000
   3.000   0.6023   0.03219   0.01631  -0.0760   0.8830   1.0000  15.3333 249.0000
   3.500   0.7316   0.03311   0.01748  -0.0801   0.7351   1.0000  32.1464 249.0000
   4.000   0.7822   0.03543   0.01948  -0.0730   0.6375   1.0000  43.2966 249.0000
   4.500   0.8261   0.03880   0.02245  -0.0667   0.5525   1.0000  52.9164 249.0000
   5.000   0.8658   0.04353   0.02682  -0.0620   0.4761   1.0000  61.5757 249.0000
   5.500   0.9021   0.04929   0.03213  -0.0577   0.4075   1.0000  69.3475 249.0000
   6.000   0.9339   0.05624   0.03850  -0.0542   0.3480   1.0000  76.0912 249.0000
   7.000   0.9503   0.07911   0.06084  -0.0601   0.2986   1.0000  81.7151 249.0000
   7.500   0.9440   0.09217   0.07355  -0.0664   0.2961   1.0000  81.9972 249.0000
   8.500   0.7893   0.12117   0.10633  -0.1146   0.7000   1.0000  36.1730 249.0000
   9.000   0.8173   0.13119   0.11668  -0.1142   0.6304   1.0000  44.1049 249.0000
   9.500   0.8388   0.14048   0.12658  -0.1130   0.5684   1.0000  51.1205 249.0000
  10.000   0.8530   0.14890   0.13618  -0.1123   0.5229   1.0000  56.2724 249.0000
