  
       XFOIL         Version 6.99
  
 Calculated polar for: 20140417-47.5_0.65+2                            
  
 1 1 Reynolds number fixed          Mach number fixed         
  
 xtrf =   1.000 (top)        1.000 (bottom)  
 Mach =   0.000     Re =     0.029 e 6     Ncrit =   9.000  9.000
  
   alpha    CL        CD       CDp       CM     Top_Xtr  Bot_Xtr  Top_Itr  Bot_Itr
  ------ -------- --------- --------- -------- -------- -------- -------- --------
  -1.000   0.1245   0.01848   0.00272  -0.0413   1.0000   1.0000   1.0000 249.0000
  -0.500   0.1756   0.01869   0.00274  -0.0409   1.0000   1.0000   1.0000 249.0000
   0.000   0.2257   0.01902   0.00296  -0.0406   1.0000   1.0000   1.0000 249.0000
   0.500   0.2747   0.01947   0.00340  -0.0404   1.0000   1.0000   1.0000 249.0000
   1.000   0.3225   0.02013   0.00409  -0.0405   1.0000   1.0000   1.0000 249.0000
   1.500   0.3677   0.02114   0.00519  -0.0411   1.0000   1.0000   1.0000 249.0000
   2.000   0.4065   0.02296   0.00713  -0.0429   1.0000   1.0000   1.0000 249.0000
   2.500   0.4344   0.02638   0.01065  -0.0474   1.0000   1.0000   1.0000 249.0000
   3.000   0.6636   0.02936   0.01441  -0.0796   0.8184   1.0000  22.6884 249.0000
   3.500   0.7359   0.03028   0.01513  -0.0743   0.7005   1.0000  36.1106 249.0000
   4.000   0.7808   0.03268   0.01708  -0.0673   0.6068   1.0000  46.7737 249.0000
   4.500   0.8243   0.03603   0.01998  -0.0618   0.5228   1.0000  56.2819 249.0000
   5.000   0.8665   0.04008   0.02348  -0.0567   0.4460   1.0000  64.9784 249.0000
   6.000   0.9398   0.05167   0.03384  -0.0489   0.3135   1.0000  80.0151 249.0000
   6.500   0.9650   0.06038   0.04200  -0.0474   0.2692   1.0000  85.0663 249.0000
   7.000   0.9727   0.07248   0.05389  -0.0504   0.2514   1.0000  87.1092 249.0000
   7.500   0.9622   0.08664   0.06794  -0.0576   0.2518   1.0000  87.0555 249.0000
   8.500   0.8168   0.12240   0.10782  -0.1120   0.6122   1.0000  46.1668 249.0000
   9.000   0.8336   0.13131   0.11704  -0.1107   0.5582   1.0000  52.2765 249.0000
   9.500   0.8493   0.14013   0.12649  -0.1096   0.5103   1.0000  57.6965 249.0000
  10.000   0.8692   0.14951   0.13651  -0.1087   0.4630   1.0000  63.0604 249.0000
