  
       XFOIL         Version 6.99
  
 Calculated polar for: 20120105-60T85_0.65+2                           
  
 1 1 Reynolds number fixed          Mach number fixed         
  
 xtrf =   1.000 (top)        1.000 (bottom)  
 Mach =   0.000     Re =     0.033 e 6     Ncrit =   9.000  9.000
  
   alpha    CL        CD       CDp       CM     Top_Xtr  Bot_Xtr  Top_Itr  Bot_Itr
  ------ -------- --------- --------- -------- -------- -------- -------- --------
  -1.000   0.1247   0.01757   0.00295  -0.0428   1.0000   1.0000   1.0000 261.0000
  -0.500   0.1756   0.01786   0.00306  -0.0427   1.0000   1.0000   1.0000 261.0000
   0.000   0.2254   0.01828   0.00337  -0.0426   1.0000   1.0000   1.0000 261.0000
   0.500   0.2742   0.01886   0.00391  -0.0428   1.0000   1.0000   1.0000 261.0000
   1.000   0.3210   0.01970   0.00474  -0.0432   1.0000   1.0000   1.0000 261.0000
   1.500   0.3643   0.02097   0.00605  -0.0441   1.0000   1.0000   1.0000 261.0000
   2.000   0.4011   0.02310   0.00824  -0.0463   1.0000   1.0000   1.0000 261.0000
   2.500   0.4972   0.02692   0.01231  -0.0625   0.9573   1.0000  17.5038 261.0000
   3.000   0.6750   0.02748   0.01335  -0.0801   0.8100   1.0000  37.1632 261.0000
   3.500   0.7415   0.02773   0.01337  -0.0743   0.7040   1.0000  47.9568 261.0000
   4.000   0.7880   0.02931   0.01442  -0.0673   0.6101   1.0000  58.0977 261.0000
   4.500   0.8323   0.03185   0.01637  -0.0618   0.5220   1.0000  65.4155 261.0000
   5.000   0.8753   0.03505   0.01887  -0.0566   0.4385   1.0000  72.3451 261.0000
   5.500   0.9165   0.03896   0.02191  -0.0518   0.3581   1.0000  79.2184 261.0000
   6.000   0.9557   0.04363   0.02541  -0.0471   0.2828   1.0000  86.0515 261.0000
   6.500   0.9872   0.05054   0.03149  -0.0440   0.2267   1.0000  91.5741 261.0000
   7.000   1.0129   0.05915   0.03909  -0.0420   0.1934   1.0000  95.1050 261.0000
   7.500   1.0152   0.07145   0.05129  -0.0436   0.1840   1.0000  96.1422 261.0000
   9.500   0.8592   0.13912   0.12455  -0.1045   0.4397   1.0000  72.2453 261.0000
  10.000   0.8725   0.14816   0.13405  -0.1041   0.4055   1.0000  75.1298 261.0000
