  
       XFOIL         Version 6.99
  
 Calculated polar for: Airfoils2D_049_0.6F_100_-3                      
  
 1 1 Reynolds number fixed          Mach number fixed         
  
 xtrf =   1.000 (top)        1.000 (bottom)  
 Mach =   0.000     Re =     0.010 e 6     Ncrit =   9.000
  
   alpha    CL        CD       CDp       CM     Top_Xtr  Bot_Xtr  Top_Itr  Bot_Itr
  ------ -------- --------- --------- -------- -------- -------- -------- --------
  -1.000  -0.0464   0.03035   0.00335  -0.0138   1.0003   0.9997   1.0000 300.0000
  -0.500   0.0043   0.03026   0.00303  -0.0138   1.0003   0.9997   1.0000 300.0000
   0.000   0.0547   0.03028   0.00293  -0.0138   1.0003   0.9997   1.0000 300.0000
   0.500   0.1045   0.03040   0.00305  -0.0138   1.0003   0.9997   1.0000 300.0000
   1.000   0.1532   0.03064   0.00336  -0.0137   1.0003   0.9997   1.0000 300.0000
   1.500   0.2003   0.03101   0.00391  -0.0136   1.0003   0.9997   1.0000 300.0000
   2.000   0.2448   0.03158   0.00472  -0.0136   1.0003   0.9997   1.0000 300.0000
   2.500   0.2854   0.03245   0.00588  -0.0139   1.0003   0.9997   1.0000 300.0000
   3.000   0.3210   0.03382   0.00748  -0.0144   1.0003   0.9997   1.0000 300.0000
   3.500   0.3528   0.03586   0.00965  -0.0158   1.0003   0.9997   1.0000 300.0000
   4.000   0.3817   0.03860   0.01253  -0.0183   1.0003   0.9997   1.0000 300.0000
   4.500   0.4070   0.04218   0.01629  -0.0220   1.0003   0.9997   1.0000 300.0000
   5.000   0.4280   0.04675   0.02110  -0.0269   1.0003   0.9997   1.0000 300.0000
   5.500   0.4452   0.05230   0.02693  -0.0325   1.0003   0.9997   1.0000 300.0000
   6.000   0.4600   0.05865   0.03358  -0.0384   1.0003   0.9997   1.0000 300.0000
   6.500   0.4737   0.06559   0.04082  -0.0441   1.0003   0.9997   1.0000 300.0000
   7.500   0.6231   0.09540   0.07219  -0.0807   0.8285   0.9997  25.2011 300.0000
   8.000   0.6292   0.10332   0.08048  -0.0834   0.8368   0.9997  24.0553 300.0000
   8.500   0.6070   0.10723   0.08479  -0.0814   0.9007   0.9997  15.1947 300.0000
   9.000   0.5454   0.10435   0.08192  -0.0668   1.0003   0.9997   1.0000 300.0000
   9.500   0.5620   0.11228   0.09091  -0.0707   1.0003   0.9997   1.0000 300.0000
  10.000   0.5796   0.12012   0.10018  -0.0744   1.0003   0.9997   1.0000 300.0000
