  
       XFOIL         Version 6.99
  
 Calculated polar for: Airfoils2D_049_0.6F_100_-3                      
  
 1 1 Reynolds number fixed          Mach number fixed         
  
 xtrf =   1.000 (top)        1.000 (bottom)  
 Mach =   0.000     Re =     0.011 e 6     Ncrit =   9.000
  
   alpha    CL        CD       CDp       CM     Top_Xtr  Bot_Xtr  Top_Itr  Bot_Itr
  ------ -------- --------- --------- -------- -------- -------- -------- --------
  -1.000  -0.0462   0.02960   0.00328  -0.0139   1.0003   0.9997   1.0000 300.0000
  -0.500   0.0047   0.02951   0.00297  -0.0139   1.0003   0.9997   1.0000 300.0000
   0.000   0.0552   0.02953   0.00287  -0.0139   1.0003   0.9997   1.0000 300.0000
   0.500   0.1051   0.02965   0.00299  -0.0138   1.0003   0.9997   1.0000 300.0000
   1.000   0.1540   0.02988   0.00330  -0.0138   1.0003   0.9997   1.0000 300.0000
   1.500   0.2011   0.03025   0.00384  -0.0137   1.0003   0.9997   1.0000 300.0000
   2.000   0.2457   0.03082   0.00466  -0.0137   1.0003   0.9997   1.0000 300.0000
   2.500   0.2862   0.03170   0.00582  -0.0140   1.0003   0.9997   1.0000 300.0000
   3.000   0.3216   0.03310   0.00743  -0.0146   1.0003   0.9997   1.0000 300.0000
   3.500   0.3534   0.03517   0.00962  -0.0161   1.0003   0.9997   1.0000 300.0000
   4.000   0.3823   0.03795   0.01254  -0.0188   1.0003   0.9997   1.0000 300.0000
   4.500   0.4076   0.04159   0.01637  -0.0227   1.0003   0.9997   1.0000 300.0000
   5.000   0.4284   0.04624   0.02126  -0.0277   1.0003   0.9997   1.0000 300.0000
   5.500   0.4455   0.05186   0.02716  -0.0334   1.0003   0.9997   1.0000 300.0000
   6.000   0.4603   0.05828   0.03387  -0.0394   1.0003   0.9997   1.0000 300.0000
   6.500   0.4739   0.06527   0.04117  -0.0451   1.0003   0.9997   1.0000 300.0000
   7.000   0.6383   0.08920   0.06648  -0.0808   0.7867   0.9997  30.9577 300.0000
   7.500   0.6544   0.09857   0.07606  -0.0841   0.7637   0.9997  34.1010 300.0000
   9.000   0.5462   0.10423   0.08240  -0.0677   1.0003   0.9997   1.0000 300.0000
   9.500   0.5628   0.11219   0.09140  -0.0714   1.0003   0.9997   1.0000 300.0000
  10.000   0.5804   0.12006   0.10066  -0.0751   1.0003   0.9997   1.0000 300.0000
