  
       XFOIL         Version 6.99
  
 Calculated polar for: Airfoils2D_049_0.6F_100_-3                      
  
 1 1 Reynolds number fixed          Mach number fixed         
  
 xtrf =   1.000 (top)        1.000 (bottom)  
 Mach =   0.000     Re =     0.011 e 6     Ncrit =   9.000
  
   alpha    CL        CD       CDp       CM     Top_Xtr  Bot_Xtr  Top_Itr  Bot_Itr
  ------ -------- --------- --------- -------- -------- -------- -------- --------
  -1.000  -0.0459   0.02889   0.00322  -0.0139   1.0003   0.9997   1.0000 300.0000
  -0.500   0.0051   0.02881   0.00291  -0.0140   1.0003   0.9997   1.0000 300.0000
   0.000   0.0557   0.02882   0.00282  -0.0140   1.0003   0.9997   1.0000 300.0000
   0.500   0.1057   0.02894   0.00293  -0.0139   1.0003   0.9997   1.0000 300.0000
   1.000   0.1547   0.02917   0.00324  -0.0139   1.0003   0.9997   1.0000 300.0000
   1.500   0.2019   0.02954   0.00378  -0.0138   1.0003   0.9997   1.0000 300.0000
   2.000   0.2465   0.03011   0.00459  -0.0138   1.0003   0.9997   1.0000 300.0000
   2.500   0.2870   0.03100   0.00576  -0.0141   1.0003   0.9997   1.0000 300.0000
   3.000   0.3221   0.03243   0.00739  -0.0148   1.0003   0.9997   1.0000 300.0000
   3.500   0.3540   0.03453   0.00960  -0.0165   1.0003   0.9997   1.0000 300.0000
   4.000   0.3830   0.03735   0.01256  -0.0192   1.0003   0.9997   1.0000 300.0000
   4.500   0.4081   0.04105   0.01645  -0.0233   1.0003   0.9997   1.0000 300.0000
   5.000   0.4289   0.04577   0.02141  -0.0285   1.0003   0.9997   1.0000 300.0000
   5.500   0.4458   0.05147   0.02739  -0.0343   1.0003   0.9997   1.0000 300.0000
   6.000   0.4605   0.05795   0.03416  -0.0403   1.0003   0.9997   1.0000 300.0000
   6.500   0.6334   0.08060   0.05834  -0.0784   0.7862   0.9997  31.0242 300.0000
   7.000   0.6636   0.09130   0.06920  -0.0819   0.7241   0.9997  39.5631 300.0000
   7.500   0.6742   0.10033   0.07837  -0.0846   0.7123   0.9997  41.1867 300.0000
   8.000   0.6709   0.10770   0.08609  -0.0875   0.7424   0.9997  37.0329 300.0000
   8.500   0.6360   0.11055   0.08949  -0.0870   0.8426   0.9997  23.2370 300.0000
   9.000   0.5469   0.10413   0.08286  -0.0684   1.0003   0.9997   1.0000 300.0000
   9.500   0.5636   0.11212   0.09185  -0.0722   1.0003   0.9997   1.0000 300.0000
  10.000   0.5813   0.12001   0.10111  -0.0758   1.0003   0.9997   1.0000 300.0000
