  
       XFOIL         Version 6.99
  
 Calculated polar for: Airfoils2D_049_0.6F_100_-3                      
  
 1 1 Reynolds number fixed          Mach number fixed         
  
 xtrf =   1.000 (top)        1.000 (bottom)  
 Mach =   0.000     Re =     0.013 e 6     Ncrit =   9.000
  
   alpha    CL        CD       CDp       CM     Top_Xtr  Bot_Xtr  Top_Itr  Bot_Itr
  ------ -------- --------- --------- -------- -------- -------- -------- --------
  -1.000  -0.0451   0.02704   0.00305  -0.0141   1.0003   0.9997   1.0000 300.0000
  -0.500   0.0061   0.02697   0.00275  -0.0142   1.0003   0.9997   1.0000 300.0000
   0.000   0.0571   0.02698   0.00267  -0.0142   1.0003   0.9997   1.0000 300.0000
   0.500   0.1074   0.02710   0.00278  -0.0141   1.0003   0.9997   1.0000 300.0000
   1.000   0.1566   0.02732   0.00309  -0.0141   1.0003   0.9997   1.0000 300.0000
   1.500   0.2041   0.02769   0.00362  -0.0140   1.0003   0.9997   1.0000 300.0000
   2.000   0.2487   0.02825   0.00443  -0.0141   1.0003   0.9997   1.0000 300.0000
   2.500   0.2890   0.02918   0.00562  -0.0145   1.0003   0.9997   1.0000 300.0000
   3.000   0.3237   0.03068   0.00728  -0.0154   1.0003   0.9997   1.0000 300.0000
   3.500   0.3558   0.03288   0.00957  -0.0174   1.0003   0.9997   1.0000 300.0000
   4.000   0.3848   0.03582   0.01264  -0.0206   1.0003   0.9997   1.0000 300.0000
   4.500   0.4097   0.03969   0.01671  -0.0251   1.0003   0.9997   1.0000 300.0000
   5.000   0.4299   0.04462   0.02189  -0.0306   1.0003   0.9997   1.0000 300.0000
   5.500   0.4466   0.05051   0.02806  -0.0367   1.0003   0.9997   1.0000 300.0000
   6.000   0.6856   0.07518   0.05461  -0.0761   0.6608   0.9997  48.2876 300.0000
   6.500   0.7119   0.08554   0.06479  -0.0756   0.5909   0.9997  58.0761 300.0000
   7.500   0.7164   0.10315   0.08230  -0.0809   0.5837   0.9997  59.1005 300.0000
   8.000   0.7035   0.11028   0.08991  -0.0863   0.6392   0.9997  51.2667 300.0000
   8.500   0.6524   0.11208   0.09254  -0.0901   0.8047   0.9997  28.4770 300.0000
   9.000   0.5491   0.10392   0.08412  -0.0705   1.0003   0.9997   1.0000 300.0000
   9.500   0.5659   0.11199   0.09311  -0.0741   1.0003   0.9997   1.0000 300.0000
  10.000   0.5837   0.11993   0.10234  -0.0777   1.0003   0.9997   1.0000 300.0000
