  
       XFOIL         Version 6.99
  
 Calculated polar for: Airfoils2D_049_0.6F_100_-3                      
  
 1 1 Reynolds number fixed          Mach number fixed         
  
 xtrf =   1.000 (top)        1.000 (bottom)  
 Mach =   0.000     Re =     0.013 e 6     Ncrit =   9.000
  
   alpha    CL        CD       CDp       CM     Top_Xtr  Bot_Xtr  Top_Itr  Bot_Itr
  ------ -------- --------- --------- -------- -------- -------- -------- --------
  -1.000  -0.0447   0.02599   0.00295  -0.0142   1.0003   0.9997   1.0000 300.0000
  -0.500   0.0068   0.02591   0.00266  -0.0143   1.0003   0.9997   1.0000 300.0000
   0.000   0.0579   0.02593   0.00258  -0.0143   1.0003   0.9997   1.0000 300.0000
   0.500   0.1084   0.02605   0.00270  -0.0142   1.0003   0.9997   1.0000 300.0000
   1.000   0.1578   0.02627   0.00300  -0.0142   1.0003   0.9997   1.0000 300.0000
   1.500   0.2054   0.02663   0.00353  -0.0142   1.0003   0.9997   1.0000 300.0000
   2.000   0.2501   0.02720   0.00434  -0.0143   1.0003   0.9997   1.0000 300.0000
   2.500   0.2901   0.02815   0.00554  -0.0148   1.0003   0.9997   1.0000 300.0000
   3.000   0.3247   0.02971   0.00723  -0.0158   1.0003   0.9997   1.0000 300.0000
   3.500   0.3569   0.03196   0.00957  -0.0181   1.0003   0.9997   1.0000 300.0000
   4.000   0.3859   0.03497   0.01272  -0.0215   1.0003   0.9997   1.0000 300.0000
   4.500   0.4106   0.03895   0.01690  -0.0262   1.0003   0.9997   1.0000 300.0000
   5.000   0.4306   0.04400   0.02221  -0.0320   1.0003   0.9997   1.0000 300.0000
   5.500   0.4471   0.05001   0.02849  -0.0382   1.0003   0.9997   1.0000 300.0000
   6.000   0.7160   0.07539   0.05545  -0.0674   0.5551   0.9997  63.1185 300.0000
   6.500   0.7300   0.08485   0.06457  -0.0678   0.5120   0.9997  69.0974 300.0000
   7.000   0.7343   0.09423   0.07380  -0.0717   0.5040   0.9997  70.2158 300.0000
   7.500   0.7323   0.10318   0.08279  -0.0765   0.5188   0.9997  68.1461 300.0000
   8.000   0.7217   0.11137   0.09152  -0.0837   0.5762   0.9997  60.1606 300.0000
   8.500   0.6482   0.11138   0.09265  -0.0911   0.8225   0.9997  26.0323 300.0000
   9.000   0.5505   0.10385   0.08487  -0.0717   1.0003   0.9997   1.0000 300.0000
   9.500   0.5674   0.11194   0.09386  -0.0753   1.0003   0.9997   1.0000 300.0000
  10.000   0.5853   0.11992   0.10307  -0.0788   1.0003   0.9997   1.0000 300.0000
