  
       XFOIL         Version 6.99
  
 Calculated polar for: Airfoils2D_049_0.6F_100_-3                      
  
 1 1 Reynolds number fixed          Mach number fixed         
  
 xtrf =   1.000 (top)        1.000 (bottom)  
 Mach =   0.000     Re =     0.014 e 6     Ncrit =   9.000
  
   alpha    CL        CD       CDp       CM     Top_Xtr  Bot_Xtr  Top_Itr  Bot_Itr
  ------ -------- --------- --------- -------- -------- -------- -------- --------
  -1.000  -0.0445   0.02551   0.00290  -0.0143   1.0003   0.9997   1.0000 300.0000
  -0.500   0.0071   0.02543   0.00262  -0.0143   1.0003   0.9997   1.0000 300.0000
   0.000   0.0583   0.02545   0.00254  -0.0143   1.0003   0.9997   1.0000 300.0000
   0.500   0.1088   0.02557   0.00266  -0.0143   1.0003   0.9997   1.0000 300.0000
   1.000   0.1583   0.02578   0.00296  -0.0143   1.0003   0.9997   1.0000 300.0000
   1.500   0.2060   0.02614   0.00349  -0.0143   1.0003   0.9997   1.0000 300.0000
   2.000   0.2507   0.02671   0.00430  -0.0144   1.0003   0.9997   1.0000 300.0000
   2.500   0.2906   0.02768   0.00550  -0.0149   1.0003   0.9997   1.0000 300.0000
   3.000   0.3252   0.02926   0.00721  -0.0160   1.0003   0.9997   1.0000 300.0000
   3.500   0.3574   0.03154   0.00957  -0.0184   1.0003   0.9997   1.0000 300.0000
   4.000   0.3865   0.03459   0.01276  -0.0219   1.0003   0.9997   1.0000 300.0000
   4.500   0.4110   0.03862   0.01700  -0.0268   1.0003   0.9997   1.0000 300.0000
   5.000   0.4309   0.04373   0.02236  -0.0327   1.0003   0.9997   1.0000 300.0000
   5.500   0.7017   0.06531   0.04595  -0.0661   0.5981   0.9997  57.0355 300.0000
   6.000   0.7216   0.07453   0.05481  -0.0628   0.5184   0.9997  68.2095 300.0000
   6.500   0.7354   0.08410   0.06403  -0.0644   0.4821   0.9997  73.2612 300.0000
   7.500   0.7366   0.10277   0.08263  -0.0744   0.4941   0.9997  71.5949 300.0000
   8.000   0.7290   0.11156   0.09191  -0.0821   0.5480   0.9997  64.0970 300.0000
   9.000   0.5511   0.10383   0.08523  -0.0723   1.0003   0.9997   1.0000 300.0000
   9.500   0.5681   0.11193   0.09421  -0.0758   1.0003   0.9997   1.0000 300.0000
  10.000   0.5860   0.11993   0.10341  -0.0793   1.0003   0.9997   1.0000 300.0000
