  
       XFOIL         Version 6.99
  
 Calculated polar for: Airfoils2D_049_0.6F_100_-3                      
  
 1 1 Reynolds number fixed          Mach number fixed         
  
 xtrf =   1.000 (top)        1.000 (bottom)  
 Mach =   0.000     Re =     0.002 e 6     Ncrit =   9.000
  
   alpha    CL        CD       CDp       CM     Top_Xtr  Bot_Xtr  Top_Itr  Bot_Itr
  ------ -------- --------- --------- -------- -------- -------- -------- --------
  -1.000  -0.0555   0.08261   0.00778  -0.0114   1.0003   0.9997   1.0000 300.0000
  -0.500  -0.0098   0.08239   0.00713  -0.0115   1.0003   0.9997   1.0000 300.0000
   0.000   0.0359   0.08233   0.00689  -0.0115   1.0003   0.9997   1.0000 300.0000
   0.500   0.0811   0.08241   0.00694  -0.0115   1.0003   0.9997   1.0000 300.0000
   1.000   0.1257   0.08262   0.00731  -0.0115   1.0003   0.9997   1.0000 300.0000
   1.500   0.1693   0.08297   0.00800  -0.0114   1.0003   0.9997   1.0000 300.0000
   2.000   0.2116   0.08344   0.00903  -0.0114   1.0003   0.9997   1.0000 300.0000
   2.500   0.2521   0.08402   0.01039  -0.0112   1.0003   0.9997   1.0000 300.0000
   3.000   0.2903   0.08469   0.01210  -0.0111   1.0003   0.9997   1.0000 300.0000
   3.500   0.3254   0.08544   0.01415  -0.0109   1.0003   0.9997   1.0000 300.0000
   4.000   0.3590   0.08699   0.01656  -0.0108   1.0003   0.9997   1.0000 300.0000
   4.500   0.3889   0.08888   0.01948  -0.0111   1.0003   0.9997   1.0000 300.0000
   5.000   0.4160   0.09135   0.02280  -0.0115   1.0003   0.9997   1.0000 300.0000
