  
       XFOIL         Version 6.99
  
 Calculated polar for: Airfoils2D_049_0.6F_100_-3                      
  
 1 1 Reynolds number fixed          Mach number fixed         
  
 xtrf =   1.000 (top)        1.000 (bottom)  
 Mach =   0.000     Re =     0.015 e 6     Ncrit =   9.000
  
   alpha    CL        CD       CDp       CM     Top_Xtr  Bot_Xtr  Top_Itr  Bot_Itr
  ------ -------- --------- --------- -------- -------- -------- -------- --------
  -1.000  -0.0438   0.02420   0.00277  -0.0144   1.0003   0.9997   1.0000 300.0000
  -0.500   0.0079   0.02413   0.00251  -0.0145   1.0003   0.9997   1.0000 300.0000
   0.000   0.0593   0.02415   0.00244  -0.0145   1.0003   0.9997   1.0000 300.0000
   0.500   0.1101   0.02426   0.00255  -0.0145   1.0003   0.9997   1.0000 300.0000
   1.000   0.1598   0.02448   0.00285  -0.0144   1.0003   0.9997   1.0000 300.0000
   1.500   0.2077   0.02483   0.00338  -0.0145   1.0003   0.9997   1.0000 300.0000
   2.000   0.2524   0.02541   0.00419  -0.0147   1.0003   0.9997   1.0000 300.0000
   2.500   0.2920   0.02642   0.00541  -0.0153   1.0003   0.9997   1.0000 300.0000
   3.000   0.3266   0.02808   0.00717  -0.0167   1.0003   0.9997   1.0000 300.0000
   3.500   0.3590   0.03043   0.00960  -0.0193   1.0003   0.9997   1.0000 300.0000
   4.000   0.3880   0.03358   0.01290  -0.0232   1.0003   0.9997   1.0000 300.0000
   4.500   0.4122   0.03777   0.01730  -0.0284   1.0003   0.9997   1.0000 300.0000
   5.000   0.4317   0.04305   0.02283  -0.0345   1.0003   0.9997   1.0000 300.0000
   5.500   0.7109   0.06211   0.04331  -0.0516   0.4972   0.9997  71.1588 300.0000
   6.000   0.7362   0.07085   0.05149  -0.0487   0.4252   0.9997  81.1390 300.0000
   6.500   0.7510   0.08107   0.06138  -0.0531   0.4026   0.9997  84.2737 300.0000
   7.000   0.7578   0.09157   0.07171  -0.0598   0.4032   0.9997  84.1905 300.0000
   7.500   0.7549   0.10168   0.08194  -0.0678   0.4245   0.9997  81.2279 300.0000
   9.000   0.5531   0.10379   0.08622  -0.0738   1.0003   0.9997   1.0000 300.0000
   9.500   0.5702   0.11194   0.09518  -0.0773   1.0003   0.9997   1.0000 300.0000
  10.000   0.5882   0.11996   0.10436  -0.0807   1.0003   0.9997   1.0000 300.0000
