  
       XFOIL         Version 6.99
  
 Calculated polar for: Airfoils2D_049_0.6F_100_-3                      
  
 1 1 Reynolds number fixed          Mach number fixed         
  
 xtrf =   1.000 (top)        1.000 (bottom)  
 Mach =   0.000     Re =     0.017 e 6     Ncrit =   9.000
  
   alpha    CL        CD       CDp       CM     Top_Xtr  Bot_Xtr  Top_Itr  Bot_Itr
  ------ -------- --------- --------- -------- -------- -------- -------- --------
  -1.000  -0.0435   0.02344   0.00270  -0.0145   1.0003   0.9997   1.0000 300.0000
  -0.500   0.0084   0.02337   0.00244  -0.0146   1.0003   0.9997   1.0000 300.0000
   0.000   0.0600   0.02339   0.00237  -0.0146   1.0003   0.9997   1.0000 300.0000
   0.500   0.1109   0.02350   0.00249  -0.0146   1.0003   0.9997   1.0000 300.0000
   1.000   0.1607   0.02371   0.00279  -0.0145   1.0003   0.9997   1.0000 300.0000
   1.500   0.2087   0.02406   0.00331  -0.0146   1.0003   0.9997   1.0000 300.0000
   2.000   0.2534   0.02464   0.00412  -0.0148   1.0003   0.9997   1.0000 300.0000
   2.500   0.2928   0.02568   0.00536  -0.0155   1.0003   0.9997   1.0000 300.0000
   3.000   0.3275   0.02739   0.00715  -0.0171   1.0003   0.9997   1.0000 300.0000
   3.500   0.3599   0.02979   0.00963  -0.0199   1.0003   0.9997   1.0000 300.0000
   4.000   0.3889   0.03301   0.01300  -0.0240   1.0003   0.9997   1.0000 300.0000
   4.500   0.4129   0.03729   0.01750  -0.0294   1.0003   0.9997   1.0000 300.0000
   5.000   0.6848   0.05225   0.03429  -0.0537   0.5749   0.9997  60.3481 300.0000
   5.500   0.7120   0.05928   0.04069  -0.0427   0.4453   0.9997  78.3612 300.0000
   6.000   0.7400   0.06804   0.04884  -0.0411   0.3812   0.9997  87.2388 300.0000
   6.500   0.7594   0.07856   0.05900  -0.0458   0.3606   0.9997  90.0880 300.0000
   7.000   0.7648   0.08980   0.07015  -0.0546   0.3665   0.9997  89.2728 300.0000
   7.500   0.7652   0.10075   0.08122  -0.0639   0.3893   0.9997  86.1078 300.0000
   8.000   0.7525   0.11076   0.09188  -0.0745   0.4473   0.9997  78.0837 300.0000
   8.500   0.5379   0.09554   0.07803  -0.0712   1.0003   0.9997   1.0000 300.0000
   9.000   0.5543   0.10380   0.08682  -0.0747   1.0003   0.9997   1.0000 300.0000
   9.500   0.5715   0.11196   0.09577  -0.0782   1.0003   0.9997   1.0000 300.0000
  10.000   0.6635   0.13100   0.11732  -0.0978   0.8818   0.9997  17.7935 300.0000
