  
       XFOIL         Version 6.99
  
 Calculated polar for: Airfoils2D_049_0.6F_100_-3                      
  
 1 1 Reynolds number fixed          Mach number fixed         
  
 xtrf =   1.000 (top)        1.000 (bottom)  
 Mach =   0.000     Re =     0.018 e 6     Ncrit =   9.000
  
   alpha    CL        CD       CDp       CM     Top_Xtr  Bot_Xtr  Top_Itr  Bot_Itr
  ------ -------- --------- --------- -------- -------- -------- -------- --------
  -1.000  -0.0429   0.02241   0.00260  -0.0146   1.0003   0.9997   1.0000 300.0000
  -0.500   0.0092   0.02235   0.00235  -0.0147   1.0003   0.9997   1.0000 300.0000
   0.000   0.0609   0.02237   0.00229  -0.0147   1.0003   0.9997   1.0000 300.0000
   0.500   0.1120   0.02247   0.00240  -0.0147   1.0003   0.9997   1.0000 300.0000
   1.000   0.1621   0.02268   0.00270  -0.0147   1.0003   0.9997   1.0000 300.0000
   1.500   0.2102   0.02303   0.00322  -0.0148   1.0003   0.9997   1.0000 300.0000
   2.000   0.2549   0.02362   0.00404  -0.0151   1.0003   0.9997   1.0000 300.0000
   2.500   0.2939   0.02471   0.00530  -0.0159   1.0003   0.9997   1.0000 300.0000
   3.000   0.3287   0.02648   0.00714  -0.0177   1.0003   0.9997   1.0000 300.0000
   3.500   0.3613   0.02894   0.00969  -0.0208   1.0003   0.9997   1.0000 300.0000
   4.000   0.3901   0.03227   0.01317  -0.0252   1.0003   0.9997   1.0000 300.0000
   4.500   0.4138   0.03669   0.01781  -0.0309   1.0003   0.9997   1.0000 300.0000
   5.000   0.6808   0.04899   0.03140  -0.0426   0.5108   0.9997  69.2735 300.0000
   5.500   0.7109   0.05457   0.03602  -0.0309   0.3810   0.9997  87.2639 300.0000
   6.500   0.7651   0.07511   0.05578  -0.0382   0.3166   0.9997  96.2099 300.0000
   7.000   0.7745   0.08716   0.06778  -0.0477   0.3243   0.9997  95.1400 300.0000
   7.500   0.7755   0.09885   0.07963  -0.0582   0.3463   0.9997  92.0748 300.0000
   8.000   0.7584   0.10961   0.09118  -0.0711   0.4079   0.9997  83.5344 300.0000
   8.500   0.5395   0.09555   0.07887  -0.0725   1.0003   0.9997   1.0000 300.0000
   9.000   0.6081   0.11157   0.09591  -0.0889   0.9388   0.9997   9.8818 300.0000
   9.500   0.6725   0.12617   0.11202  -0.0986   0.8237   0.9997  25.8653 300.0000
  10.000   0.7097   0.13672   0.12422  -0.1010   0.7453   0.9997  36.6304 300.0000
