  
       XFOIL         Version 6.99
  
 Calculated polar for: Airfoils2D_049_0.6F_100_-3                      
  
 1 1 Reynolds number fixed          Mach number fixed         
  
 xtrf =   1.000 (top)        1.000 (bottom)  
 Mach =   0.000     Re =     0.018 e 6     Ncrit =   9.000
  
   alpha    CL        CD       CDp       CM     Top_Xtr  Bot_Xtr  Top_Itr  Bot_Itr
  ------ -------- --------- --------- -------- -------- -------- -------- --------
  -1.000  -0.0428   0.02210   0.00257  -0.0147   1.0003   0.9997   1.0000 300.0000
  -0.500   0.0094   0.02203   0.00232  -0.0148   1.0003   0.9997   1.0000 300.0000
   0.000   0.0612   0.02206   0.00226  -0.0148   1.0003   0.9997   1.0000 300.0000
   0.500   0.1124   0.02216   0.00238  -0.0147   1.0003   0.9997   1.0000 300.0000
   1.000   0.1625   0.02237   0.00267  -0.0147   1.0003   0.9997   1.0000 300.0000
   1.500   0.2107   0.02271   0.00319  -0.0148   1.0003   0.9997   1.0000 300.0000
   2.000   0.2554   0.02331   0.00401  -0.0152   1.0003   0.9997   1.0000 300.0000
   2.500   0.2942   0.02441   0.00529  -0.0160   1.0003   0.9997   1.0000 300.0000
   3.000   0.3291   0.02621   0.00714  -0.0179   1.0003   0.9997   1.0000 300.0000
   3.500   0.3617   0.02869   0.00971  -0.0211   1.0003   0.9997   1.0000 300.0000
   4.000   0.3905   0.03205   0.01323  -0.0256   1.0003   0.9997   1.0000 300.0000
   4.500   0.4141   0.03652   0.01792  -0.0314   1.0003   0.9997   1.0000 300.0000
   5.000   0.6791   0.04768   0.03014  -0.0386   0.4911   0.9997  72.0152 300.0000
   5.500   0.7098   0.05322   0.03468  -0.0281   0.3644   0.9997  89.5579 300.0000
   6.000   0.7438   0.06239   0.04330  -0.0290   0.3143   0.9997  96.5195 300.0000
   6.500   0.7679   0.07381   0.05450  -0.0353   0.3030   0.9997  98.0960 300.0000
   7.000   0.7773   0.08607   0.06673  -0.0452   0.3099   0.9997  97.1358 300.0000
   7.500   0.7782   0.09805   0.07888  -0.0561   0.3317   0.9997  94.0989 300.0000
   8.000   0.7643   0.10927   0.09082  -0.0690   0.3886   0.9997  86.2111 300.0000
   8.500   0.5400   0.09556   0.07914  -0.0729   1.0003   0.9997   1.0000 300.0000
   9.000   0.6442   0.11631   0.10126  -0.0950   0.8606   0.9997  20.7451 300.0000
   9.500   0.6854   0.12763   0.11380  -0.0991   0.7817   0.9997  31.6327 300.0000
  10.000   0.7223   0.13847   0.12602  -0.1013   0.7136   0.9997  40.9970 300.0000
