  
       XFOIL         Version 6.99
  
 Calculated polar for: Airfoils2D_049_0.6F_100_-3                      
  
 1 1 Reynolds number fixed          Mach number fixed         
  
 xtrf =   1.000 (top)        1.000 (bottom)  
 Mach =   0.000     Re =     0.019 e 6     Ncrit =   9.000
  
   alpha    CL        CD       CDp       CM     Top_Xtr  Bot_Xtr  Top_Itr  Bot_Itr
  ------ -------- --------- --------- -------- -------- -------- -------- --------
  -1.000  -0.0426   0.02180   0.00254  -0.0147   1.0003   0.9997   1.0000 300.0000
  -0.500   0.0096   0.02173   0.00229  -0.0148   1.0003   0.9997   1.0000 300.0000
   0.000   0.0615   0.02176   0.00224  -0.0148   1.0003   0.9997   1.0000 300.0000
   0.500   0.1127   0.02186   0.00235  -0.0148   1.0003   0.9997   1.0000 300.0000
   1.000   0.1628   0.02207   0.00265  -0.0148   1.0003   0.9997   1.0000 300.0000
   1.500   0.2111   0.02241   0.00316  -0.0149   1.0003   0.9997   1.0000 300.0000
   2.000   0.2558   0.02301   0.00399  -0.0153   1.0003   0.9997   1.0000 300.0000
   2.500   0.2945   0.02413   0.00527  -0.0161   1.0003   0.9997   1.0000 300.0000
   3.000   0.3295   0.02595   0.00714  -0.0181   1.0003   0.9997   1.0000 300.0000
   3.500   0.3622   0.02845   0.00973  -0.0214   1.0003   0.9997   1.0000 300.0000
   4.000   0.3909   0.03184   0.01329  -0.0260   1.0003   0.9997   1.0000 300.0000
   4.500   0.6525   0.04152   0.02478  -0.0556   0.6682   0.9997  47.2590 300.0000
   5.500   0.7092   0.05150   0.03282  -0.0244   0.3468   0.9997  92.0011 300.0000
   6.000   0.7444   0.06108   0.04199  -0.0266   0.3013   0.9997  98.3304 300.0000
   6.500   0.7677   0.07290   0.05370  -0.0339   0.2923   0.9997  99.5855 300.0000
   7.000   0.7805   0.08491   0.06556  -0.0424   0.2959   0.9997  99.0839 300.0000
   7.500   0.7776   0.09737   0.07835  -0.0551   0.3214   0.9997  95.5383 300.0000
   8.000   0.7325   0.11115   0.08699  -0.0653   0.3890   0.9997  86.1511 300.0000
   8.500   0.5405   0.09557   0.07939  -0.0733   1.0003   0.9997   1.0000 300.0000
   9.000   0.6626   0.11858   0.10383  -0.0968   0.8138   0.9997  27.2300 300.0000
   9.500   0.7006   0.12962   0.11589  -0.0997   0.7431   0.9997  36.9341 300.0000
  10.000   0.7245   0.13834   0.12617  -0.1002   0.6886   0.9997  44.4391 300.0000
