  
       XFOIL         Version 6.99
  
 Calculated polar for: Airfoils2D_049_0.6F_100_-3                      
  
 1 1 Reynolds number fixed          Mach number fixed         
  
 xtrf =   1.000 (top)        1.000 (bottom)  
 Mach =   0.000     Re =     0.002 e 6     Ncrit =   9.000
  
   alpha    CL        CD       CDp       CM     Top_Xtr  Bot_Xtr  Top_Itr  Bot_Itr
  ------ -------- --------- --------- -------- -------- -------- -------- --------
  -1.000  -0.0543   0.07088   0.00684  -0.0117   1.0003   0.9997   1.0000 300.0000
  -0.500  -0.0078   0.07069   0.00624  -0.0118   1.0003   0.9997   1.0000 300.0000
   0.000   0.0386   0.07064   0.00603  -0.0118   1.0003   0.9997   1.0000 300.0000
   0.500   0.0845   0.07072   0.00609  -0.0118   1.0003   0.9997   1.0000 300.0000
   1.000   0.1296   0.07094   0.00644  -0.0117   1.0003   0.9997   1.0000 300.0000
   1.500   0.1736   0.07129   0.00711  -0.0116   1.0003   0.9997   1.0000 300.0000
   2.000   0.2159   0.07175   0.00808  -0.0114   1.0003   0.9997   1.0000 300.0000
   2.500   0.2561   0.07231   0.00936  -0.0112   1.0003   0.9997   1.0000 300.0000
   3.000   0.2938   0.07317   0.01100  -0.0110   1.0003   0.9997   1.0000 300.0000
   3.500   0.3292   0.07449   0.01302  -0.0109   1.0003   0.9997   1.0000 300.0000
   4.000   0.3614   0.07620   0.01546  -0.0110   1.0003   0.9997   1.0000 300.0000
   4.500   0.3901   0.07839   0.01828  -0.0114   1.0003   0.9997   1.0000 300.0000
   5.500   0.4376   0.08455   0.02559  -0.0133   1.0003   0.9997   1.0000 300.0000
   6.000   0.4573   0.08859   0.03008  -0.0152   1.0003   0.9997   1.0000 300.0000
   6.500   0.4748   0.09320   0.03518  -0.0177   1.0003   0.9997   1.0000 300.0000
   7.000   0.4905   0.09831   0.04091  -0.0209   1.0003   0.9997   1.0000 300.0000
   7.500   0.5051   0.10387   0.04732  -0.0246   1.0003   0.9997   1.0000 300.0000
   8.000   0.5192   0.10973   0.05426  -0.0286   1.0003   0.9997   1.0000 300.0000
   8.500   0.5333   0.11581   0.06170  -0.0329   1.0003   0.9997   1.0000 300.0000
   9.000   0.5476   0.12203   0.06961  -0.0373   1.0003   0.9997   1.0000 300.0000
   9.500   0.5626   0.12833   0.07799  -0.0418   1.0003   0.9997   1.0000 300.0000
  10.000   0.5783   0.13468   0.08682  -0.0463   1.0003   0.9997   1.0000 300.0000
