  
       XFOIL         Version 6.99
  
 Calculated polar for: Airfoils2D_049_0.6F_100_-3                      
  
 1 1 Reynolds number fixed          Mach number fixed         
  
 xtrf =   1.000 (top)        1.000 (bottom)  
 Mach =   0.000     Re =     0.003 e 6     Ncrit =   9.000
  
   alpha    CL        CD       CDp       CM     Top_Xtr  Bot_Xtr  Top_Itr  Bot_Itr
  ------ -------- --------- --------- -------- -------- -------- -------- --------
  -1.000  -0.0529   0.06420   0.00597  -0.0119   1.0003   0.9997   1.0000 300.0000
  -0.500  -0.0066   0.06401   0.00542  -0.0119   1.0003   0.9997   1.0000 300.0000
   0.000   0.0395   0.06398   0.00522  -0.0118   1.0003   0.9997   1.0000 300.0000
   0.500   0.0850   0.06408   0.00528  -0.0117   1.0003   0.9997   1.0000 300.0000
   1.000   0.1296   0.06433   0.00562  -0.0115   1.0003   0.9997   1.0000 300.0000
   1.500   0.1727   0.06473   0.00624  -0.0112   1.0003   0.9997   1.0000 300.0000
   2.000   0.2137   0.06535   0.00714  -0.0109   1.0003   0.9997   1.0000 300.0000
   2.500   0.2526   0.06626   0.00836  -0.0106   1.0003   0.9997   1.0000 300.0000
   3.000   0.2888   0.06749   0.00991  -0.0103   1.0003   0.9997   1.0000 300.0000
   3.500   0.3216   0.06908   0.01182  -0.0101   1.0003   0.9997   1.0000 300.0000
   4.000   0.3507   0.07113   0.01413  -0.0101   1.0003   0.9997   1.0000 300.0000
   4.500   0.3759   0.07373   0.01684  -0.0104   1.0003   0.9997   1.0000 300.0000
   5.000   0.3982   0.07697   0.02010  -0.0113   1.0003   0.9997   1.0000 300.0000
   5.500   0.4177   0.08086   0.02392  -0.0128   1.0003   0.9997   1.0000 300.0000
   6.000   0.4343   0.08539   0.02831  -0.0149   1.0003   0.9997   1.0000 300.0000
   6.500   0.4485   0.09055   0.03326  -0.0177   1.0003   0.9997   1.0000 300.0000
   7.000   0.4608   0.09631   0.03874  -0.0209   1.0003   0.9997   1.0000 300.0000
   7.500   0.4714   0.10257   0.04468  -0.0244   1.0003   0.9997   1.0000 300.0000
   8.000   0.4808   0.10923   0.05101  -0.0279   1.0003   0.9997   1.0000 300.0000
   8.500   0.4892   0.11617   0.05755  -0.0314   1.0003   0.9997   1.0000 300.0000
   9.000   0.4966   0.12331   0.06421  -0.0347   1.0003   0.9997   1.0000 300.0000
   9.500   0.5031   0.13054   0.07092  -0.0377   1.0003   0.9997   1.0000 300.0000
  10.000   0.5091   0.13775   0.07765  -0.0405   1.0003   0.9997   1.0000 300.0000
