  
       XFOIL         Version 6.99
  
 Calculated polar for: Airfoils2D_049_0.6F_100_-3                      
  
 1 1 Reynolds number fixed          Mach number fixed         
  
 xtrf =   1.000 (top)        1.000 (bottom)  
 Mach =   0.000     Re =     0.004 e 6     Ncrit =   9.000
  
   alpha    CL        CD       CDp       CM     Top_Xtr  Bot_Xtr  Top_Itr  Bot_Itr
  ------ -------- --------- --------- -------- -------- -------- -------- --------
  -1.000  -0.0514   0.05372   0.00511  -0.0123   1.0003   0.9997   1.0000 300.0000
  -0.500  -0.0042   0.05356   0.00463  -0.0122   1.0003   0.9997   1.0000 300.0000
   0.000   0.0427   0.05355   0.00445  -0.0121   1.0003   0.9997   1.0000 300.0000
   0.500   0.0889   0.05367   0.00452  -0.0120   1.0003   0.9997   1.0000 300.0000
   1.000   0.1341   0.05395   0.00485  -0.0118   1.0003   0.9997   1.0000 300.0000
   1.500   0.1776   0.05441   0.00544  -0.0115   1.0003   0.9997   1.0000 300.0000
   2.000   0.2194   0.05510   0.00632  -0.0112   1.0003   0.9997   1.0000 300.0000
   2.500   0.2585   0.05603   0.00749  -0.0109   1.0003   0.9997   1.0000 300.0000
   3.000   0.2941   0.05728   0.00900  -0.0107   1.0003   0.9997   1.0000 300.0000
   3.500   0.3259   0.05894   0.01088  -0.0106   1.0003   0.9997   1.0000 300.0000
   4.000   0.3535   0.06111   0.01320  -0.0109   1.0003   0.9997   1.0000 300.0000
   4.500   0.3779   0.06392   0.01600  -0.0116   1.0003   0.9997   1.0000 300.0000
   5.000   0.3993   0.06741   0.01943  -0.0132   1.0003   0.9997   1.0000 300.0000
   5.500   0.4177   0.07162   0.02349  -0.0155   1.0003   0.9997   1.0000 300.0000
   6.000   0.4333   0.07658   0.02822  -0.0185   1.0003   0.9997   1.0000 300.0000
   6.500   0.4467   0.08227   0.03359  -0.0220   1.0003   0.9997   1.0000 300.0000
   7.000   0.4584   0.08856   0.03952  -0.0260   1.0003   0.9997   1.0000 300.0000
   7.500   0.4691   0.09532   0.04590  -0.0300   1.0003   0.9997   1.0000 300.0000
   8.000   0.4791   0.10245   0.05261  -0.0340   1.0003   0.9997   1.0000 300.0000
   8.500   0.4884   0.10984   0.05956  -0.0378   1.0003   0.9997   1.0000 300.0000
   9.000   0.4969   0.11739   0.06658  -0.0412   1.0003   0.9997   1.0000 300.0000
   9.500   0.5046   0.12500   0.07361  -0.0443   1.0003   0.9997   1.0000 300.0000
  10.000   0.5114   0.13258   0.08059  -0.0470   1.0003   0.9997   1.0000 300.0000
