  
       XFOIL         Version 6.99
  
 Calculated polar for: Airfoils2D_049_0.6F_100_-3                      
  
 1 1 Reynolds number fixed          Mach number fixed         
  
 xtrf =   1.000 (top)        1.000 (bottom)  
 Mach =   0.000     Re =     0.004 e 6     Ncrit =   9.000
  
   alpha    CL        CD       CDp       CM     Top_Xtr  Bot_Xtr  Top_Itr  Bot_Itr
  ------ -------- --------- --------- -------- -------- -------- -------- --------
  -1.000  -0.0506   0.04608   0.00476  -0.0128   1.0003   0.9997   1.0000 300.0000
  -0.500  -0.0019   0.04595   0.00432  -0.0128   1.0003   0.9997   1.0000 300.0000
   0.000   0.0465   0.04593   0.00416  -0.0127   1.0003   0.9997   1.0000 300.0000
   0.500   0.0942   0.04603   0.00425  -0.0126   1.0003   0.9997   1.0000 300.0000
   1.000   0.1409   0.04626   0.00458  -0.0125   1.0003   0.9997   1.0000 300.0000
   1.500   0.1863   0.04667   0.00518  -0.0124   1.0003   0.9997   1.0000 300.0000
   2.000   0.2299   0.04728   0.00605  -0.0122   1.0003   0.9997   1.0000 300.0000
   2.500   0.2708   0.04811   0.00724  -0.0121   1.0003   0.9997   1.0000 300.0000
   3.000   0.3083   0.04925   0.00878  -0.0121   1.0003   0.9997   1.0000 300.0000
   3.500   0.3419   0.05083   0.01075  -0.0123   1.0003   0.9997   1.0000 300.0000
   4.000   0.3711   0.05298   0.01321  -0.0130   1.0003   0.9997   1.0000 300.0000
   4.500   0.3975   0.05582   0.01628  -0.0144   1.0003   0.9997   1.0000 300.0000
   5.000   0.4206   0.05938   0.02008  -0.0168   1.0003   0.9997   1.0000 300.0000
   5.500   0.4404   0.06372   0.02467  -0.0201   1.0003   0.9997   1.0000 300.0000
   6.000   0.4571   0.06885   0.03010  -0.0242   1.0003   0.9997   1.0000 300.0000
   6.500   0.4715   0.07469   0.03627  -0.0289   1.0003   0.9997   1.0000 300.0000
   7.000   0.4847   0.08109   0.04305  -0.0338   1.0003   0.9997   1.0000 300.0000
   7.500   0.4975   0.08790   0.05034  -0.0387   1.0003   0.9997   1.0000 300.0000
   8.000   0.5106   0.09498   0.05807  -0.0435   1.0003   0.9997   1.0000 300.0000
   8.500   0.5243   0.10219   0.06616  -0.0481   1.0003   0.9997   1.0000 300.0000
   9.000   0.5390   0.10942   0.07462  -0.0526   1.0003   0.9997   1.0000 300.0000
   9.500   0.5547   0.11663   0.08344  -0.0569   1.0003   0.9997   1.0000 300.0000
  10.000   0.5714   0.12378   0.09263  -0.0612   1.0003   0.9997   1.0000 300.0000
