  
       XFOIL         Version 6.99
  
 Calculated polar for: Airfoils2D_049_0.6F_100_-3                      
  
 1 1 Reynolds number fixed          Mach number fixed         
  
 xtrf =   1.000 (top)        1.000 (bottom)  
 Mach =   0.000     Re =     0.001 e 6     Ncrit =   9.000
  
   alpha    CL        CD       CDp       CM     Top_Xtr  Bot_Xtr  Top_Itr  Bot_Itr
  ------ -------- --------- --------- -------- -------- -------- -------- --------
  -1.000  -0.0595   0.14880   0.01275  -0.0098   1.0003   0.9997   1.0000 300.0000
  -0.500  -0.0164   0.14848   0.01215  -0.0101   1.0003   0.9997   1.0000 300.0000
   1.500   0.1445   0.15360   0.01371  -0.0103   1.0003   0.9997   1.0000 300.0000
   2.000   0.1832   0.15429   0.01444  -0.0103   1.0003   0.9997   1.0000 300.0000
