  
       XFOIL         Version 6.99
  
 Calculated polar for: Airfoils2D_049_0.6F_100_-3                      
  
 1 1 Reynolds number fixed          Mach number fixed         
  
 xtrf =   1.000 (top)        1.000 (bottom)  
 Mach =   0.000     Re =     0.007 e 6     Ncrit =   9.000
  
   alpha    CL        CD       CDp       CM     Top_Xtr  Bot_Xtr  Top_Itr  Bot_Itr
  ------ -------- --------- --------- -------- -------- -------- -------- --------
  -1.000  -0.0484   0.03654   0.00392  -0.0133   1.0003   0.9997   1.0000 300.0000
  -0.500   0.0014   0.03643   0.00354  -0.0133   1.0003   0.9997   1.0000 300.0000
   0.000   0.0509   0.03643   0.00342  -0.0133   1.0003   0.9997   1.0000 300.0000
   0.500   0.0998   0.03656   0.00352  -0.0132   1.0003   0.9997   1.0000 300.0000
   1.000   0.1477   0.03681   0.00385  -0.0131   1.0003   0.9997   1.0000 300.0000
   1.500   0.1941   0.03721   0.00442  -0.0130   1.0003   0.9997   1.0000 300.0000
   2.000   0.2383   0.03779   0.00526  -0.0129   1.0003   0.9997   1.0000 300.0000
   2.500   0.2791   0.03862   0.00641  -0.0129   1.0003   0.9997   1.0000 300.0000
   3.000   0.3159   0.03985   0.00796  -0.0132   1.0003   0.9997   1.0000 300.0000
   3.500   0.3479   0.04164   0.00999  -0.0139   1.0003   0.9997   1.0000 300.0000
   4.000   0.3770   0.04411   0.01263  -0.0154   1.0003   0.9997   1.0000 300.0000
   4.500   0.4027   0.04732   0.01603  -0.0180   1.0003   0.9997   1.0000 300.0000
   5.000   0.4248   0.05137   0.02030  -0.0217   1.0003   0.9997   1.0000 300.0000
   5.500   0.4431   0.05635   0.02555  -0.0264   1.0003   0.9997   1.0000 300.0000
   6.000   0.4584   0.06217   0.03166  -0.0316   1.0003   0.9997   1.0000 300.0000
   6.500   0.4721   0.06868   0.03848  -0.0371   1.0003   0.9997   1.0000 300.0000
   7.000   0.4852   0.07567   0.04581  -0.0424   1.0003   0.9997   1.0000 300.0000
   7.500   0.4983   0.08299   0.05353  -0.0474   1.0003   0.9997   1.0000 300.0000
   8.000   0.5117   0.09051   0.06155  -0.0521   1.0003   0.9997   1.0000 300.0000
   8.500   0.5259   0.09814   0.06987  -0.0565   1.0003   0.9997   1.0000 300.0000
   9.000   0.5410   0.10578   0.07848  -0.0607   1.0003   0.9997   1.0000 300.0000
   9.500   0.5572   0.11341   0.08743  -0.0647   1.0003   0.9997   1.0000 300.0000
  10.000   0.5743   0.12099   0.09669  -0.0687   1.0003   0.9997   1.0000 300.0000
