  
       XFOIL         Version 6.99
  
 Calculated polar for: Airfoils2D_049_0.6F_100_-3                      
  
 1 1 Reynolds number fixed          Mach number fixed         
  
 xtrf =   1.000 (top)        1.000 (bottom)  
 Mach =   0.000     Re =     0.007 e 6     Ncrit =   9.000
  
   alpha    CL        CD       CDp       CM     Top_Xtr  Bot_Xtr  Top_Itr  Bot_Itr
  ------ -------- --------- --------- -------- -------- -------- -------- --------
  -1.000  -0.0480   0.03525   0.00380  -0.0134   1.0003   0.9997   1.0000 300.0000
  -0.500   0.0020   0.03514   0.00344  -0.0134   1.0003   0.9997   1.0000 300.0000
   0.000   0.0516   0.03515   0.00332  -0.0134   1.0003   0.9997   1.0000 300.0000
   0.500   0.1007   0.03528   0.00342  -0.0133   1.0003   0.9997   1.0000 300.0000
   1.000   0.1488   0.03552   0.00375  -0.0132   1.0003   0.9997   1.0000 300.0000
   1.500   0.1953   0.03592   0.00432  -0.0131   1.0003   0.9997   1.0000 300.0000
   2.000   0.2395   0.03649   0.00515  -0.0131   1.0003   0.9997   1.0000 300.0000
   2.500   0.2804   0.03733   0.00630  -0.0131   1.0003   0.9997   1.0000 300.0000
   3.000   0.3170   0.03858   0.00786  -0.0134   1.0003   0.9997   1.0000 300.0000
   3.500   0.3488   0.04041   0.00990  -0.0142   1.0003   0.9997   1.0000 300.0000
   4.000   0.3779   0.04294   0.01259  -0.0159   1.0003   0.9997   1.0000 300.0000
   4.500   0.4035   0.04621   0.01604  -0.0187   1.0003   0.9997   1.0000 300.0000
   5.000   0.4254   0.05035   0.02041  -0.0226   1.0003   0.9997   1.0000 300.0000
   5.500   0.4435   0.05544   0.02577  -0.0275   1.0003   0.9997   1.0000 300.0000
   6.000   0.4587   0.06137   0.03199  -0.0329   1.0003   0.9997   1.0000 300.0000
   6.500   0.4724   0.06797   0.03890  -0.0385   1.0003   0.9997   1.0000 300.0000
   7.000   0.4855   0.07504   0.04631  -0.0438   1.0003   0.9997   1.0000 300.0000
   7.500   0.4986   0.08242   0.05407  -0.0488   1.0003   0.9997   1.0000 300.0000
   8.000   0.5122   0.09000   0.06213  -0.0534   1.0003   0.9997   1.0000 300.0000
   8.500   0.5264   0.09768   0.07048  -0.0577   1.0003   0.9997   1.0000 300.0000
   9.000   0.5416   0.10541   0.07912  -0.0619   1.0003   0.9997   1.0000 300.0000
   9.500   0.5578   0.11313   0.08807  -0.0659   1.0003   0.9997   1.0000 300.0000
  10.000   0.5751   0.12077   0.09735  -0.0698   1.0003   0.9997   1.0000 300.0000
