  
       XFOIL         Version 6.99
  
 Calculated polar for: Airfoils2D_049_0.6F_100_-3                      
  
 1 1 Reynolds number fixed          Mach number fixed         
  
 xtrf =   1.000 (top)        1.000 (bottom)  
 Mach =   0.000     Re =     0.009 e 6     Ncrit =   9.000
  
   alpha    CL        CD       CDp       CM     Top_Xtr  Bot_Xtr  Top_Itr  Bot_Itr
  ------ -------- --------- --------- -------- -------- -------- -------- --------
  -1.000  -0.0473   0.03302   0.00360  -0.0136   1.0003   0.9997   1.0000 300.0000
  -0.500   0.0030   0.03293   0.00325  -0.0136   1.0003   0.9997   1.0000 300.0000
   0.000   0.0530   0.03294   0.00314  -0.0136   1.0003   0.9997   1.0000 300.0000
   0.500   0.1023   0.03306   0.00325  -0.0135   1.0003   0.9997   1.0000 300.0000
   1.000   0.1507   0.03331   0.00358  -0.0134   1.0003   0.9997   1.0000 300.0000
   1.500   0.1975   0.03369   0.00413  -0.0134   1.0003   0.9997   1.0000 300.0000
   2.000   0.2418   0.03426   0.00495  -0.0133   1.0003   0.9997   1.0000 300.0000
   2.500   0.2826   0.03511   0.00611  -0.0134   1.0003   0.9997   1.0000 300.0000
   3.000   0.3188   0.03641   0.00768  -0.0138   1.0003   0.9997   1.0000 300.0000
   3.500   0.3506   0.03832   0.00977  -0.0148   1.0003   0.9997   1.0000 300.0000
   4.000   0.3795   0.04094   0.01253  -0.0169   1.0003   0.9997   1.0000 300.0000
   4.500   0.4050   0.04434   0.01611  -0.0201   1.0003   0.9997   1.0000 300.0000
   5.000   0.4265   0.04866   0.02067  -0.0244   1.0003   0.9997   1.0000 300.0000
   5.500   0.4442   0.05395   0.02623  -0.0296   1.0003   0.9997   1.0000 300.0000
   6.000   0.4592   0.06007   0.03264  -0.0353   1.0003   0.9997   1.0000 300.0000
   6.500   0.4729   0.06683   0.03971  -0.0409   1.0003   0.9997   1.0000 300.0000
   7.000   0.4861   0.07402   0.04723  -0.0463   1.0003   0.9997   1.0000 300.0000
   7.500   0.4993   0.08151   0.05508  -0.0512   1.0003   0.9997   1.0000 300.0000
   8.000   0.5131   0.08919   0.06321  -0.0557   1.0003   0.9997   1.0000 300.0000
   8.500   0.5276   0.09702   0.07162  -0.0600   1.0003   0.9997   1.0000 300.0000
   9.000   0.5431   0.10487   0.08032  -0.0641   1.0003   0.9997   1.0000 300.0000
   9.500   0.5595   0.11269   0.08930  -0.0680   1.0003   0.9997   1.0000 300.0000
  10.000   0.5769   0.12042   0.09858  -0.0719   1.0003   0.9997   1.0000 300.0000
