  
       XFOIL         Version 6.99
  
 Calculated polar for: 20140417-49_0.65+2                              
  
 1 1 Reynolds number fixed          Mach number fixed         
  
 xtrf =   1.000 (top)        1.000 (bottom)  
 Mach =   0.000     Re =     0.070 e 6     Ncrit =   9.000  9.000
  
   alpha    CL        CD       CDp       CM     Top_Xtr  Bot_Xtr  Top_Itr  Bot_Itr
  ------ -------- --------- --------- -------- -------- -------- -------- --------
  -1.000   0.1451   0.01195   0.00195  -0.0446   1.0000   1.0000   1.0000 249.0000
  -0.500   0.1976   0.01217   0.00204  -0.0444   1.0000   1.0000   1.0000 249.0000
   0.000   0.2494   0.01248   0.00229  -0.0443   1.0000   1.0000   1.0000 249.0000
   0.500   0.3006   0.01292   0.00274  -0.0444   1.0000   1.0000   1.0000 249.0000
   1.000   0.3498   0.01364   0.00350  -0.0450   1.0000   1.0000   1.0000 249.0000
   1.500   0.4567   0.01444   0.00450  -0.0571   0.9564   1.0000   6.9523 249.0000
   2.000   0.5631   0.01393   0.00404  -0.0633   0.8365   1.0000  20.6285 249.0000
   2.500   0.6152   0.01447   0.00383  -0.0585   0.6941   1.0000  36.8506 249.0000
   3.000   0.6626   0.01583   0.00427  -0.0549   0.5781   1.0000  50.0213 249.0000
   3.500   0.7111   0.01736   0.00501  -0.0525   0.4872   1.0000  60.3099 249.0000
   4.000   0.7600   0.01897   0.00588  -0.0505   0.4116   1.0000  68.8777 249.0000
   4.500   0.8088   0.02069   0.00690  -0.0486   0.3423   1.0000  76.7419 249.0000
   5.000   0.8567   0.02260   0.00802  -0.0468   0.2750   1.0000  84.4043 249.0000
   5.500   0.9028   0.02478   0.00918  -0.0448   0.2060   1.0000  92.3049 249.0000
   6.000   0.9466   0.02763   0.01055  -0.0426   0.1378   1.0000 100.2347 249.0000
   6.500   0.9911   0.03224   0.01346  -0.0404   0.0956   1.0000 105.2615 249.0000
   7.000   1.0327   0.03855   0.01853  -0.0380   0.0765   1.0000 107.6004 249.0000
   7.500   1.0623   0.04739   0.02669  -0.0356   0.0695   1.0000 108.4746 249.0000
   8.000   1.0824   0.05655   0.03453  -0.0339   0.0648   1.0000 109.0564 249.0000
   8.500   1.0513   0.07210   0.05176  -0.0355   0.0705   1.0000 108.3489 249.0000
   9.000   1.0316   0.08384   0.06297  -0.0380   0.0728   1.0000 108.0554 249.0000
