  
       XFOIL         Version 6.99
  
 Calculated polar for: 20140424-35_0.65+2                              
  
 1 1 Reynolds number fixed          Mach number fixed         
  
 xtrf =   1.000 (top)        1.000 (bottom)  
 Mach =   0.000     Re =     0.035 e 6     Ncrit =   9.000  9.000
  
   alpha    CL        CD       CDp       CM     Top_Xtr  Bot_Xtr  Top_Itr  Bot_Itr
  ------ -------- --------- --------- -------- -------- -------- -------- --------
  -1.000   0.1198   0.01649   0.00229  -0.0399   1.0000   1.0000   1.0000 250.0000
  -0.500   0.1716   0.01665   0.00228  -0.0395   1.0000   1.0000   1.0000 250.0000
   0.000   0.2227   0.01690   0.00245  -0.0390   1.0000   1.0000   1.0000 250.0000
   0.500   0.2731   0.01724   0.00279  -0.0387   1.0000   1.0000   1.0000 250.0000
   1.000   0.3225   0.01771   0.00333  -0.0385   1.0000   1.0000   1.0000 250.0000
   1.500   0.3707   0.01844   0.00421  -0.0388   1.0000   1.0000   1.0000 250.0000
   2.000   0.4132   0.01995   0.00596  -0.0406   1.0000   1.0000   1.0000 250.0000
   2.500   0.6004   0.02209   0.00878  -0.0682   0.8358   1.0000  20.7403 250.0000
   3.000   0.6616   0.02302   0.00905  -0.0616   0.6850   1.0000  37.8469 250.0000
   3.500   0.7059   0.02542   0.01068  -0.0557   0.5779   1.0000  49.9724 250.0000
   4.000   0.7522   0.02842   0.01309  -0.0517   0.4898   1.0000  59.9234 250.0000
   4.500   0.7985   0.03200   0.01619  -0.0486   0.4128   1.0000  68.6161 250.0000
   5.000   0.8431   0.03613   0.01982  -0.0455   0.3434   1.0000  76.4806 250.0000
   5.500   0.8851   0.04115   0.02427  -0.0425   0.2812   1.0000  83.5494 250.0000
   6.000   0.9234   0.04751   0.02998  -0.0401   0.2317   1.0000  89.1960 250.0000
   7.000   0.9620   0.06984   0.05216  -0.0435   0.1955   1.0000  93.3509 250.0000
   7.500   0.9570   0.08433   0.06666  -0.0506   0.1995   1.0000  92.8910 250.0000
   8.000   0.8494   0.11526   0.10143  -0.1031   0.4890   1.0000  60.0155 250.0000
   8.500   0.8550   0.12355   0.10971  -0.1018   0.4527   1.0000  64.1075 250.0000
   9.000   0.8605   0.13147   0.11787  -0.1005   0.4129   1.0000  68.6074 250.0000
   9.500   0.8723   0.14030   0.12699  -0.1001   0.3816   1.0000  72.1494 250.0000
  10.000   0.8778   0.14798   0.13575  -0.1002   0.3517   1.0000  75.5296 250.0000
