  
       XFOIL         Version 6.99
  
 Calculated polar for: 20140417-50_0.65+2                              
  
 1 1 Reynolds number fixed          Mach number fixed         
  
 xtrf =   1.000 (top)        1.000 (bottom)  
 Mach =   0.000     Re =     0.029 e 6     Ncrit =   9.000  9.000
  
   alpha    CL        CD       CDp       CM     Top_Xtr  Bot_Xtr  Top_Itr  Bot_Itr
  ------ -------- --------- --------- -------- -------- -------- -------- --------
  -1.000   0.1254   0.01837   0.00274  -0.0415   1.0000   1.0000   1.0000 249.0000
  -0.500   0.1764   0.01859   0.00278  -0.0412   1.0000   1.0000   1.0000 249.0000
   0.000   0.2264   0.01893   0.00301  -0.0409   1.0000   1.0000   1.0000 249.0000
   0.500   0.2752   0.01941   0.00346  -0.0408   1.0000   1.0000   1.0000 249.0000
   1.000   0.3228   0.02009   0.00418  -0.0409   1.0000   1.0000   1.0000 249.0000
   1.500   0.3676   0.02116   0.00532  -0.0416   1.0000   1.0000   1.0000 249.0000
   2.000   0.4058   0.02304   0.00731  -0.0435   1.0000   1.0000   1.0000 249.0000
   2.500   0.4339   0.02646   0.01082  -0.0479   1.0000   1.0000   1.0000 249.0000
   3.000   0.6633   0.02929   0.01441  -0.0799   0.8219   1.0000  22.2850 249.0000
   3.500   0.7367   0.03015   0.01510  -0.0750   0.7051   1.0000  35.5764 249.0000
   4.000   0.7827   0.03232   0.01682  -0.0679   0.6119   1.0000  46.2015 249.0000
   4.500   0.8265   0.03547   0.01949  -0.0622   0.5271   1.0000  55.7932 249.0000
   5.000   0.8680   0.03953   0.02306  -0.0573   0.4491   1.0000  64.6335 249.0000
   5.500   0.9076   0.04429   0.02717  -0.0525   0.3761   1.0000  72.9014 249.0000
   6.000   0.9417   0.05063   0.03285  -0.0489   0.3120   1.0000  80.1903 249.0000
   6.500   0.9712   0.05819   0.03953  -0.0460   0.2609   1.0000  86.0147 249.0000
   7.500   0.9754   0.08327   0.06417  -0.0532   0.2350   1.0000  88.9785 249.0000
   8.000   0.9434   0.10040   0.08177  -0.0672   0.2608   1.0000  86.0235 249.0000
   8.500   0.8178   0.12191   0.10735  -0.1110   0.5996   1.0000  47.5850 249.0000
   9.000   0.8351   0.13095   0.11666  -0.1098   0.5473   1.0000  53.5125 249.0000
   9.500   0.8506   0.13986   0.12615  -0.1089   0.5019   1.0000  58.6498 249.0000
  10.000   0.8683   0.14889   0.13595  -0.1081   0.4559   1.0000  63.8550 249.0000
