  
       XFOIL         Version 6.99
  
 Calculated polar for: 20120105-50T85_0.65+2                           
  
 1 1 Reynolds number fixed          Mach number fixed         
  
 xtrf =   1.000 (top)        1.000 (bottom)  
 Mach =   0.000     Re =     0.010 e 6     Ncrit =   9.000  9.000
  
   alpha    CL        CD       CDp       CM     Top_Xtr  Bot_Xtr  Top_Itr  Bot_Itr
  ------ -------- --------- --------- -------- -------- -------- -------- --------
  -1.000   0.0961   0.03125   0.00418  -0.0370   1.0000   1.0000   1.0000 249.0000
  -0.500   0.1450   0.03146   0.00410  -0.0366   1.0000   1.0000   1.0000 249.0000
   0.000   0.1927   0.03181   0.00427  -0.0362   1.0000   1.0000   1.0000 249.0000
   0.500   0.2393   0.03230   0.00470  -0.0359   1.0000   1.0000   1.0000 249.0000
   1.000   0.2845   0.03298   0.00538  -0.0356   1.0000   1.0000   1.0000 249.0000
   1.500   0.3277   0.03390   0.00637  -0.0355   1.0000   1.0000   1.0000 249.0000
   2.000   0.3685   0.03519   0.00776  -0.0358   1.0000   1.0000   1.0000 249.0000
   2.500   0.4055   0.03701   0.00970  -0.0367   1.0000   1.0000   1.0000 249.0000
   3.000   0.4367   0.03962   0.01240  -0.0385   1.0000   1.0000   1.0000 249.0000
   3.500   0.4622   0.04317   0.01600  -0.0414   1.0000   1.0000   1.0000 249.0000
   4.000   0.4837   0.04759   0.02047  -0.0453   1.0000   1.0000   1.0000 249.0000
   4.500   0.5028   0.05268   0.02562  -0.0496   1.0000   1.0000   1.0000 249.0000
   5.000   0.5206   0.05829   0.03129  -0.0541   1.0000   1.0000   1.0000 249.0000
   5.500   0.5376   0.06432   0.03741  -0.0585   1.0000   1.0000   1.0000 249.0000
   6.000   0.5539   0.07073   0.04392  -0.0628   1.0000   1.0000   1.0000 249.0000
   6.500   0.5697   0.07748   0.05081  -0.0670   1.0000   1.0000   1.0000 249.0000
   7.000   0.5851   0.08456   0.05807  -0.0710   1.0000   1.0000   1.0000 249.0000
   7.500   0.6002   0.09193   0.06569  -0.0749   1.0000   1.0000   1.0000 249.0000
   8.000   0.6151   0.09955   0.07368  -0.0786   1.0000   1.0000   1.0000 249.0000
   8.500   0.6300   0.10738   0.08203  -0.0824   1.0000   1.0000   1.0000 249.0000
   9.000   0.6450   0.11537   0.09078  -0.0860   1.0000   1.0000   1.0000 249.0000
   9.500   0.6604   0.12348   0.09993  -0.0897   1.0000   1.0000   1.0000 249.0000
  10.000   0.6763   0.13166   0.10952  -0.0934   1.0000   1.0000   1.0000 249.0000
