  
       XFOIL         Version 6.99
  
 Calculated polar for: 20120105-50T85_0.65+2                           
  
 1 1 Reynolds number fixed          Mach number fixed         
  
 xtrf =   1.000 (top)        1.000 (bottom)  
 Mach =   0.000     Re =     0.017 e 6     Ncrit =   9.000  9.000
  
   alpha    CL        CD       CDp       CM     Top_Xtr  Bot_Xtr  Top_Itr  Bot_Itr
  ------ -------- --------- --------- -------- -------- -------- -------- --------
  -1.000   0.1087   0.02392   0.00337  -0.0388   1.0000   1.0000   1.0000 249.0000
  -0.500   0.1586   0.02415   0.00336  -0.0384   1.0000   1.0000   1.0000 249.0000
   0.000   0.2075   0.02449   0.00357  -0.0381   1.0000   1.0000   1.0000 249.0000
   0.500   0.2552   0.02497   0.00401  -0.0378   1.0000   1.0000   1.0000 249.0000
   1.000   0.3014   0.02564   0.00471  -0.0377   1.0000   1.0000   1.0000 249.0000
   1.500   0.3457   0.02660   0.00574  -0.0379   1.0000   1.0000   1.0000 249.0000
   2.000   0.3865   0.02805   0.00728  -0.0387   1.0000   1.0000   1.0000 249.0000
   2.500   0.4208   0.03032   0.00965  -0.0407   1.0000   1.0000   1.0000 249.0000
   3.000   0.4475   0.03378   0.01318  -0.0442   1.0000   1.0000   1.0000 249.0000
   3.500   0.4691   0.03827   0.01774  -0.0490   1.0000   1.0000   1.0000 249.0000
   4.000   0.4887   0.04344   0.02298  -0.0541   1.0000   1.0000   1.0000 249.0000
   5.000   0.7477   0.06184   0.04234  -0.0937   0.7434   1.0000  43.5262 249.0000
   5.500   0.7998   0.06952   0.05003  -0.0950   0.6653   1.0000  56.2544 249.0000
   6.500   0.8265   0.08688   0.06704  -0.0959   0.5914   1.0000  62.4397 249.0000
   7.000   0.8279   0.09636   0.07640  -0.0981   0.5820   1.0000  63.2153 249.0000
   8.000   0.6237   0.09790   0.07844  -0.0872   1.0000   1.0000   1.0000 249.0000
   8.500   0.6391   0.10603   0.08695  -0.0907   1.0000   1.0000   1.0000 249.0000
   9.000   0.6544   0.11434   0.09584  -0.0941   1.0000   1.0000   1.0000 249.0000
   9.500   0.6701   0.12281   0.10513  -0.0976   1.0000   1.0000   1.0000 249.0000
  10.000   0.7275   0.13803   0.12220  -0.1115   0.9433   1.0000  20.0380 249.0000
