  
       XFOIL         Version 6.99
  
 Calculated polar for: 20120105-50T85_0.65+2                           
  
 1 1 Reynolds number fixed          Mach number fixed         
  
 xtrf =   1.000 (top)        1.000 (bottom)  
 Mach =   0.000     Re =     0.032 e 6     Ncrit =   9.000  9.000
  
   alpha    CL        CD       CDp       CM     Top_Xtr  Bot_Xtr  Top_Itr  Bot_Itr
  ------ -------- --------- --------- -------- -------- -------- -------- --------
  -1.000   0.1230   0.01762   0.00265  -0.0410   1.0000   1.0000   1.0000 249.0000
  -0.500   0.1740   0.01784   0.00270  -0.0407   1.0000   1.0000   1.0000 249.0000
   0.000   0.2241   0.01818   0.00294  -0.0404   1.0000   1.0000   1.0000 249.0000
   0.500   0.2731   0.01865   0.00339  -0.0402   1.0000   1.0000   1.0000 249.0000
   1.000   0.3209   0.01933   0.00410  -0.0404   1.0000   1.0000   1.0000 249.0000
   1.500   0.3658   0.02039   0.00523  -0.0411   1.0000   1.0000   1.0000 249.0000
   2.000   0.4040   0.02229   0.00723  -0.0431   1.0000   1.0000   1.0000 249.0000
   2.500   0.4666   0.02607   0.01122  -0.0543   0.9786   1.0000  12.5189 249.0000
   3.000   0.6727   0.02696   0.01270  -0.0766   0.7955   1.0000  38.5514 249.0000
   3.500   0.7312   0.02790   0.01327  -0.0697   0.6829   1.0000  54.7550 249.0000
   4.000   0.7752   0.03009   0.01492  -0.0628   0.5874   1.0000  62.7694 249.0000
   4.500   0.8195   0.03301   0.01720  -0.0572   0.5000   1.0000  69.9611 249.0000
   5.000   0.8617   0.03683   0.02046  -0.0526   0.4181   1.0000  76.7796 249.0000
   5.500   0.9019   0.04152   0.02445  -0.0483   0.3425   1.0000  83.3058 249.0000
   6.000   0.9385   0.04743   0.02955  -0.0446   0.2769   1.0000  89.3225 249.0000
   6.500   0.9707   0.05480   0.03592  -0.0419   0.2286   1.0000  94.0663 249.0000
   7.000   0.9847   0.06603   0.04696  -0.0430   0.2082   1.0000  96.1914 249.0000
   7.500   0.9767   0.08024   0.06123  -0.0487   0.2084   1.0000  96.1760 249.0000
   8.500   0.8385   0.12331   0.10855  -0.1074   0.5354   1.0000  67.0506 249.0000
   9.000   0.8459   0.13130   0.11690  -0.1057   0.4902   1.0000  70.7708 249.0000
   9.500   0.8612   0.14058   0.12632  -0.1048   0.4500   1.0000  74.1045 249.0000
  10.000   0.8723   0.14910   0.13557  -0.1043   0.4143   1.0000  77.1046 249.0000
