  
       XFOIL         Version 6.99
  
 Calculated polar for: 20100901-5f tip_0.65+2                          
  
 1 1 Reynolds number fixed          Mach number fixed         
  
 xtrf =   1.000 (top)        1.000 (bottom)  
 Mach =   0.000     Re =     0.018 e 6     Ncrit =   9.000  9.000
  
   alpha    CL        CD       CDp       CM     Top_Xtr  Bot_Xtr  Top_Itr  Bot_Itr
  ------ -------- --------- --------- -------- -------- -------- -------- --------
  -1.000   0.0783   0.02245   0.00244  -0.0304   1.0000   1.0000   1.0000 254.0000
  -0.500   0.1298   0.02256   0.00237  -0.0300   1.0000   1.0000   1.0000 254.0000
   0.000   0.1803   0.02275   0.00249  -0.0295   1.0000   1.0000   1.0000 254.0000
   0.500   0.2296   0.02304   0.00280  -0.0289   1.0000   1.0000   1.0000 254.0000
   1.000   0.2778   0.02345   0.00331  -0.0284   1.0000   1.0000   1.0000 254.0000
   1.500   0.3245   0.02402   0.00408  -0.0281   1.0000   1.0000   1.0000 254.0000
   2.000   0.3690   0.02489   0.00522  -0.0282   1.0000   1.0000   1.0000 254.0000
   2.500   0.4086   0.02644   0.00712  -0.0296   1.0000   1.0000   1.0000 254.0000
   3.000   0.4362   0.02978   0.01073  -0.0342   1.0000   1.0000   1.0000 254.0000
   3.500   0.4541   0.03502   0.01615  -0.0418   1.0000   1.0000   1.0000 254.0000
   4.000   0.7238   0.04439   0.02690  -0.0703   0.6511   1.0000  44.4281 254.0000
   4.500   0.7613   0.05009   0.03227  -0.0606   0.5338   1.0000  57.6016 254.0000
   5.000   0.7941   0.05798   0.03985  -0.0570   0.4561   1.0000  66.3241 254.0000
   5.500   0.8211   0.06780   0.04942  -0.0585   0.4132   1.0000  71.1420 254.0000
   6.000   0.8379   0.07882   0.06024  -0.0636   0.3967   1.0000  72.9948 254.0000
   6.500   0.8357   0.09085   0.07231  -0.0739   0.4133   1.0000  71.1359 254.0000
   7.000   0.8203   0.10189   0.08359  -0.0849   0.4568   1.0000  66.2483 254.0000
   7.500   0.7678   0.11047   0.09326  -0.1018   0.6337   1.0000  46.3879 254.0000
   8.000   0.6029   0.09946   0.08241  -0.0859   1.0000   1.0000   1.0000 254.0000
   8.500   0.6192   0.10772   0.09112  -0.0893   1.0000   1.0000   1.0000 254.0000
   9.000   0.6358   0.11605   0.10010  -0.0926   1.0000   1.0000   1.0000 254.0000
   9.500   0.7233   0.13479   0.12098  -0.1110   0.8739   1.0000  16.3257 254.0000
  10.000   0.7675   0.14669   0.13483  -0.1154   0.7817   1.0000  26.6707 254.0000
