  
       XFOIL         Version 6.99
  
 Calculated polar for: 20100901-5f tip_0.65+2                          
  
 1 1 Reynolds number fixed          Mach number fixed         
  
 xtrf =   1.000 (top)        1.000 (bottom)  
 Mach =   0.000     Re =     0.018 e 6     Ncrit =   9.000  9.000
  
   alpha    CL        CD       CDp       CM     Top_Xtr  Bot_Xtr  Top_Itr  Bot_Itr
  ------ -------- --------- --------- -------- -------- -------- -------- --------
  -1.000   0.0788   0.02214   0.00241  -0.0305   1.0000   1.0000   1.0000 254.0000
  -0.500   0.1303   0.02225   0.00234  -0.0301   1.0000   1.0000   1.0000 254.0000
   0.000   0.1808   0.02244   0.00246  -0.0295   1.0000   1.0000   1.0000 254.0000
   0.500   0.2302   0.02273   0.00277  -0.0290   1.0000   1.0000   1.0000 254.0000
   1.000   0.2783   0.02313   0.00328  -0.0285   1.0000   1.0000   1.0000 254.0000
   1.500   0.3251   0.02371   0.00404  -0.0281   1.0000   1.0000   1.0000 254.0000
   2.000   0.3697   0.02458   0.00519  -0.0283   1.0000   1.0000   1.0000 254.0000
   2.500   0.4093   0.02615   0.00710  -0.0297   1.0000   1.0000   1.0000 254.0000
   3.000   0.4363   0.02958   0.01080  -0.0346   1.0000   1.0000   1.0000 254.0000
   3.500   0.4540   0.03488   0.01629  -0.0423   1.0000   1.0000   1.0000 254.0000
   4.000   0.7247   0.04337   0.02603  -0.0672   0.6337   1.0000  46.3817 254.0000
   4.500   0.7607   0.04899   0.03126  -0.0576   0.5187   1.0000  59.2995 254.0000
   5.000   0.7951   0.05672   0.03864  -0.0537   0.4401   1.0000  68.1148 254.0000
   6.000   0.8372   0.07811   0.05971  -0.0622   0.3860   1.0000  74.1920 254.0000
   6.500   0.8420   0.09009   0.07162  -0.0711   0.3965   1.0000  73.0197 254.0000
   7.000   0.8265   0.10158   0.08340  -0.0831   0.4399   1.0000  68.1470 254.0000
   7.500   0.6981   0.10477   0.08825  -0.1045   0.8250   1.0000  21.8160 254.0000
   8.000   0.6034   0.09943   0.08264  -0.0863   1.0000   1.0000   1.0000 254.0000
   8.500   0.6198   0.10771   0.09136  -0.0897   1.0000   1.0000   1.0000 254.0000
   9.000   0.6749   0.12185   0.10665  -0.1027   0.9509   1.0000   7.6501 254.0000
   9.500   0.7368   0.13646   0.12304  -0.1124   0.8356   1.0000  20.6163 254.0000
  10.000   0.7776   0.14784   0.13619  -0.1153   0.7461   1.0000  30.6741 254.0000
