  
       XFOIL         Version 6.99
  
 Calculated polar for: 20100901-5f tip_0.65+2                          
  
 1 1 Reynolds number fixed          Mach number fixed         
  
 xtrf =   1.000 (top)        1.000 (bottom)  
 Mach =   0.000     Re =     0.004 e 6     Ncrit =   9.000  9.000
  
   alpha    CL        CD       CDp       CM     Top_Xtr  Bot_Xtr  Top_Itr  Bot_Itr
  ------ -------- --------- --------- -------- -------- -------- -------- --------
  -1.000   0.0492   0.05244   0.00519  -0.0263   1.0000   1.0000   1.0000 254.0000
  -0.500   0.0985   0.05250   0.00491  -0.0262   1.0000   1.0000   1.0000 254.0000
   0.000   0.1467   0.05267   0.00497  -0.0259   1.0000   1.0000   1.0000 254.0000
   0.500   0.1936   0.05299   0.00531  -0.0256   1.0000   1.0000   1.0000 254.0000
   1.000   0.2392   0.05350   0.00596  -0.0252   1.0000   1.0000   1.0000 254.0000
   1.500   0.2835   0.05422   0.00692  -0.0249   1.0000   1.0000   1.0000 254.0000
   2.000   0.3257   0.05516   0.00822  -0.0246   1.0000   1.0000   1.0000 254.0000
   2.500   0.3653   0.05639   0.00989  -0.0245   1.0000   1.0000   1.0000 254.0000
   3.000   0.4019   0.05802   0.01207  -0.0247   1.0000   1.0000   1.0000 254.0000
   3.500   0.4341   0.06021   0.01477  -0.0254   1.0000   1.0000   1.0000 254.0000
   4.000   0.4614   0.06321   0.01821  -0.0268   1.0000   1.0000   1.0000 254.0000
   4.500   0.4834   0.06714   0.02243  -0.0293   1.0000   1.0000   1.0000 254.0000
   5.000   0.5012   0.07192   0.02740  -0.0327   1.0000   1.0000   1.0000 254.0000
   5.500   0.5167   0.07740   0.03305  -0.0367   1.0000   1.0000   1.0000 254.0000
   6.000   0.5311   0.08339   0.03930  -0.0411   1.0000   1.0000   1.0000 254.0000
   6.500   0.5449   0.08978   0.04602  -0.0456   1.0000   1.0000   1.0000 254.0000
   7.000   0.5586   0.09648   0.05318  -0.0500   1.0000   1.0000   1.0000 254.0000
   7.500   0.5725   0.10341   0.06074  -0.0545   1.0000   1.0000   1.0000 254.0000
   8.000   0.5867   0.11049   0.06870  -0.0588   1.0000   1.0000   1.0000 254.0000
   8.500   0.6016   0.11765   0.07704  -0.0631   1.0000   1.0000   1.0000 254.0000
   9.000   0.6171   0.12484   0.08576  -0.0674   1.0000   1.0000   1.0000 254.0000
   9.500   0.6334   0.13202   0.09489  -0.0716   1.0000   1.0000   1.0000 254.0000
  10.000   0.6505   0.13917   0.10442  -0.0758   1.0000   1.0000   1.0000 254.0000
