  
       XFOIL         Version 6.99
  
 Calculated polar for: 20100901-5f tip_0.65+2                          
  
 1 1 Reynolds number fixed          Mach number fixed         
  
 xtrf =   1.000 (top)        1.000 (bottom)  
 Mach =   0.000     Re =     0.009 e 6     Ncrit =   9.000  9.000
  
   alpha    CL        CD       CDp       CM     Top_Xtr  Bot_Xtr  Top_Itr  Bot_Itr
  ------ -------- --------- --------- -------- -------- -------- -------- --------
  -1.000   0.0664   0.03202   0.00335  -0.0287   1.0000   1.0000   1.0000 254.0000
  -0.500   0.1172   0.03213   0.00321  -0.0284   1.0000   1.0000   1.0000 254.0000
   0.000   0.1669   0.03235   0.00332  -0.0280   1.0000   1.0000   1.0000 254.0000
   0.500   0.2155   0.03269   0.00365  -0.0275   1.0000   1.0000   1.0000 254.0000
   1.000   0.2627   0.03315   0.00423  -0.0271   1.0000   1.0000   1.0000 254.0000
   1.500   0.3082   0.03378   0.00507  -0.0267   1.0000   1.0000   1.0000 254.0000
   2.000   0.3516   0.03466   0.00626  -0.0265   1.0000   1.0000   1.0000 254.0000
   2.500   0.3917   0.03594   0.00793  -0.0268   1.0000   1.0000   1.0000 254.0000
   3.000   0.4263   0.03799   0.01038  -0.0282   1.0000   1.0000   1.0000 254.0000
   3.500   0.4521   0.04136   0.01401  -0.0315   1.0000   1.0000   1.0000 254.0000
   4.000   0.4708   0.04608   0.01890  -0.0366   1.0000   1.0000   1.0000 254.0000
   4.500   0.4871   0.05164   0.02462  -0.0423   1.0000   1.0000   1.0000 254.0000
   5.000   0.5027   0.05773   0.03089  -0.0480   1.0000   1.0000   1.0000 254.0000
   5.500   0.5179   0.06428   0.03763  -0.0535   1.0000   1.0000   1.0000 254.0000
   6.000   0.5327   0.07119   0.04476  -0.0585   1.0000   1.0000   1.0000 254.0000
   6.500   0.5473   0.07842   0.05223  -0.0632   1.0000   1.0000   1.0000 254.0000
   7.000   0.5619   0.08589   0.05999  -0.0676   1.0000   1.0000   1.0000 254.0000
   7.500   0.5768   0.09359   0.06804  -0.0717   1.0000   1.0000   1.0000 254.0000
   8.000   0.5920   0.10142   0.07637  -0.0756   1.0000   1.0000   1.0000 254.0000
   8.500   0.6075   0.10934   0.08497  -0.0793   1.0000   1.0000   1.0000 254.0000
   9.000   0.6237   0.11731   0.09389  -0.0829   1.0000   1.0000   1.0000 254.0000
   9.500   0.6404   0.12526   0.10314  -0.0866   1.0000   1.0000   1.0000 254.0000
  10.000   0.6578   0.13318   0.11274  -0.0902   1.0000   1.0000   1.0000 254.0000
